
     RDKit          3D

249251  0  0  0  0  0  0  0  0999 V2000
    5.1118    4.3904    2.3313 C   0  0  0  0  0  0  0  0  0  0  0  0
    5.2258    3.6622    0.9998 C   0  0  0  0  0  0  0  0  0  0  0  0
    5.7603    2.2166    1.1126 C   0  0  2  0  0  0  0  0  0  0  0  0
    5.9194    1.6230   -0.2947 C   0  0  0  0  0  0  0  0  0  0  0  0
    4.9508    1.3246    2.0878 C   0  0  1  0  0  0  0  0  0  0  0  0
    3.4467    1.1778    1.7486 C   0  0  0  0  0  0  0  0  0  0  0  0
    2.9510    1.4731    0.6619 O   0  0  0  0  0  0  0  0  0  0  0  0
    2.6868    0.6646    2.7797 N   0  0  0  0  0  0  0  0  0  0  0  0
    1.2519    0.4612    2.6515 C   0  0  1  0  0  0  0  0  0  0  0  0
    0.9217   -0.9767    2.1915 C   0  0  0  0  0  0  0  0  0  0  0  0
    1.0192   -2.0093    3.3167 C   0  0  0  0  0  0  0  0  0  0  0  0
   -0.4575   -1.0556    1.5334 C   0  0  0  0  0  0  0  0  0  0  0  0
    0.5566    0.8629    3.9685 C   0  0  0  0  0  0  0  0  0  0  0  0
    0.9974    0.5834    5.0792 O   0  0  0  0  0  0  0  0  0  0  0  0
   -0.6269    1.5370    3.7704 N   0  0  0  0  0  0  0  0  0  0  0  0
   -1.3986    2.1371    4.8664 C   0  0  1  0  0  0  0  0  0  0  0  0
   -0.7452    3.4253    5.3976 C   0  0  0  0  0  0  0  0  0  0  0  0
   -0.9858    4.7345    4.6322 C   0  0  0  0  0  0  0  0  0  0  0  0
   -0.7783    4.6832    3.1340 C   0  0  0  0  0  0  0  0  0  0  0  0
   -0.9493    3.6808    2.4453 O   0  0  0  0  0  0  0  0  0  0  0  0
   -0.4508    5.8707    2.5568 N   0  0  0  0  0  0  0  0  0  0  0  0
   -2.8596    2.3448    4.3951 C   0  0  0  0  0  0  0  0  0  0  0  0
   -3.6555    3.0974    4.9440 O   0  0  0  0  0  0  0  0  0  0  0  0
   -3.2005    1.5373    3.3312 N   0  0  0  0  0  0  0  0  0  0  0  0
   -4.5164    1.4958    2.6855 C   0  0  1  0  0  0  0  0  0  0  0  0
   -5.6716    1.2962    3.6769 C   0  0  0  0  0  0  0  0  0  0  0  0
   -6.9730    0.0853    3.1886 S   0  0  0  0  0  0  0  0  0  0  0  0
   -6.0145   -1.7446    3.1556 S   0  0  0  0  0  0  0  0  0  0  0  0
   -6.4445   -2.4277    1.4932 C   0  0  0  0  0  0  0  0  0  0  0  0
   -5.2567   -2.5291    0.5155 C   0  0  2  0  0  0  0  0  0  0  0  0
   -4.1725   -3.3616    1.0668 N   0  0  0  0  0  0  0  0  0  0  0  0
   -3.1955   -3.9383    0.2943 C   0  0  0  0  0  0  0  0  0  0  0  0
   -2.9872   -3.5587   -0.8627 O   0  0  0  0  0  0  0  0  0  0  0  0
   -2.3952   -5.1040    0.9461 C   0  0  1  0  0  0  0  0  0  0  0  0
   -1.1893   -5.3029    0.1313 N   0  0  0  0  0  0  0  0  0  0  0  0
   -1.2909   -6.0303   -1.0488 C   0  0  0  0  0  0  0  0  0  0  0  0
   -2.2128   -6.8084   -1.2913 O   0  0  0  0  0  0  0  0  0  0  0  0
   -0.3292   -5.5416   -2.1295 C   0  0  0  0  0  0  0  0  0  0  0  0
   -1.0381   -4.4297   -2.7305 N   0  0  0  0  0  0  0  0  0  0  0  0
   -0.7277   -3.8916   -3.9487 C   0  0  0  0  0  0  0  0  0  0  0  0
    0.3189   -4.1253   -4.5493 O   0  0  0  0  0  0  0  0  0  0  0  0
   -1.8344   -2.9648   -4.4962 C   0  0  1  0  0  0  0  0  0  0  0  0
   -1.2269   -1.6789   -4.8181 N   0  0  0  0  0  0  0  0  0  0  0  0
   -0.9104   -0.8143   -3.7847 C   0  0  0  0  0  0  0  0  0  0  0  0
   -1.1180   -1.1151   -2.6078 O   0  0  0  0  0  0  0  0  0  0  0  0
   -0.2591    0.5215   -4.2063 C   0  0  1  0  0  0  0  0  0  0  0  0
   -0.3748    1.4713   -3.1039 N   0  0  0  0  0  0  0  0  0  0  0  0
   -0.6243    2.8132   -3.2674 C   0  0  0  0  0  0  0  0  0  0  0  0
   -0.8964    3.3022   -4.3629 O   0  0  0  0  0  0  0  0  0  0  0  0
   -0.6024    3.6615   -1.9736 C   0  0  1  0  0  0  0  0  0  0  0  0
   -1.8716    3.5854   -1.2406 N   0  0  0  0  0  0  0  0  0  0  0  0
   -2.2090    4.5698   -0.3333 C   0  0  0  0  0  0  0  0  0  0  0  0
   -1.4165    5.4653   -0.0278 O   0  0  0  0  0  0  0  0  0  0  0  0
   -3.6225    4.4438    0.3143 C   0  0  1  0  0  0  0  0  0  0  0  0
   -3.6076    3.3365    1.2773 N   0  0  0  0  0  0  0  0  0  0  0  0
   -4.7514    2.6928    1.7219 C   0  0  0  0  0  0  0  0  0  0  0  0
   -5.8642    2.9718    1.2815 O   0  0  0  0  0  0  0  0  0  0  0  0
   -3.9746    5.7943    0.9760 C   0  0  0  0  0  0  0  0  0  0  0  0
   -5.4333    5.9420    1.4104 C   0  0  0  0  0  0  0  0  0  0  0  0
   -5.7346    7.3703    1.8647 C   0  0  0  0  0  0  0  0  0  0  0  0
   -7.1257    7.4785    2.2619 N   0  0  0  0  0  0  0  0  0  0  0  0
   -7.6865    8.6159    2.7236 C   0  0  0  0  0  0  0  0  0  0  0  0
   -7.2342    9.8120    2.6603 N   0  0  0  0  0  0  0  0  0  0  0  0
   -8.8828    8.3851    3.2951 N   0  0  0  0  0  0  0  0  0  0  0  0
    0.6283    3.3201   -1.1068 C   0  0  0  0  0  0  0  0  0  0  0  0
    0.5938    1.9673   -0.6276 O   0  0  0  0  0  0  0  0  0  0  0  0
    1.2073    0.3026   -4.6533 C   0  0  0  0  0  0  0  0  0  0  0  0
    2.1303   -0.1018   -3.4975 C   0  0  0  0  0  0  0  0  0  0  0  0
    1.7748    1.5370   -5.3591 C   0  0  0  0  0  0  0  0  0  0  0  0
   -2.5067   -3.6115   -5.7182 C   0  0  0  0  0  0  0  0  0  0  0  0
   -3.6719   -4.5370   -5.3449 C   0  0  0  0  0  0  0  0  0  0  0  0
   -3.2432   -5.7253   -4.5251 C   0  0  0  0  0  0  0  0  0  0  0  0
   -2.4505   -6.5824   -4.8732 O   0  0  0  0  0  0  0  0  0  0  0  0
   -3.7828   -5.7118   -3.2918 O   0  0  0  0  0  0  0  0  0  0  0  0
   -2.0265   -4.8053    2.4027 C   0  0  0  0  0  0  0  0  0  0  0  0
   -3.1953   -4.8124    3.2246 O   0  0  0  0  0  0  0  0  0  0  0  0
   -4.8705   -1.1106    0.0504 C   0  0  0  0  0  0  0  0  0  0  0  0
   -5.6800   -0.1851    0.0172 O   0  0  0  0  0  0  0  0  0  0  0  0
   -3.6116   -0.9431   -0.4737 N   0  0  0  0  0  0  0  0  0  0  0  0
   -3.1654    0.3720   -0.8900 C   0  0  0  0  0  0  0  0  0  0  0  0
   -3.7862    0.8716   -2.1970 C   0  0  0  0  0  0  0  0  0  0  0  0
   -3.7612    2.0636   -2.5019 O   0  0  0  0  0  0  0  0  0  0  0  0
   -4.2669   -0.1104   -3.0317 N   0  0  0  0  0  0  0  0  0  0  0  0
   -5.2205    0.2148   -4.0973 C   0  0  1  0  0  0  0  0  0  0  0  0
   -4.8226   -0.4943   -5.3921 C   0  0  0  0  0  0  0  0  0  0  0  0
   -5.6435   -0.0856   -6.5892 C   0  0  0  0  0  0  0  0  0  0  0  0
   -6.6272   -0.9400   -7.1051 C   0  0  0  0  0  0  0  0  0  0  0  0
   -7.3894   -0.5533   -8.2083 C   0  0  0  0  0  0  0  0  0  0  0  0
   -7.1768    0.6885   -8.8039 C   0  0  0  0  0  0  0  0  0  0  0  0
   -6.2021    1.5456   -8.2971 C   0  0  0  0  0  0  0  0  0  0  0  0
   -5.4380    1.1617   -7.1946 C   0  0  0  0  0  0  0  0  0  0  0  0
   -6.5707   -0.3004   -3.6047 C   0  0  0  0  0  0  0  0  0  0  0  0
   -6.7538   -1.3758   -3.0466 O   0  0  0  0  0  0  0  0  0  0  0  0
   -7.5912    0.5450   -3.8334 O   0  0  0  0  0  0  0  0  0  0  0  0
    5.5326   -0.0173    2.1983 N   0  0  0  0  0  0  0  0  0  0  0  0
    5.4442   -0.7463    3.3700 C   0  0  0  0  0  0  0  0  0  0  0  0
    5.0163   -0.2442    4.4104 O   0  0  0  0  0  0  0  0  0  0  0  0
    6.0596   -2.1665    3.3142 C   0  0  2  0  0  0  0  0  0  0  0  0
    7.5756   -2.1232    3.5473 C   0  0  0  0  0  0  0  0  0  0  0  0
    8.0490   -1.4871    4.8628 C   0  0  0  0  0  0  0  0  0  0  0  0
    7.5776   -2.1979    6.1325 C   0  0  0  0  0  0  0  0  0  0  0  0
    6.1693   -1.9531    6.3583 N   0  0  0  0  0  0  0  0  0  0  0  0
    5.4946   -2.5405    7.3686 C   0  0  0  0  0  0  0  0  0  0  0  0
    5.9479   -3.4899    8.1001 N   0  0  0  0  0  0  0  0  0  0  0  0
    4.2639   -2.0132    7.5101 N   0  0  0  0  0  0  0  0  0  0  0  0
    5.7921   -2.7511    1.9956 N   0  0  0  0  0  0  0  0  0  0  0  0
    4.5721   -3.3269    1.7027 C   0  0  0  0  0  0  0  0  0  0  0  0
    3.6918   -3.4544    2.5493 O   0  0  0  0  0  0  0  0  0  0  0  0
    4.3287   -3.5900    0.1972 C   0  0  2  0  0  0  0  0  0  0  0  0
    3.0711   -4.4361   -0.0808 C   0  0  0  0  0  0  0  0  0  0  0  0
    3.1136   -5.9722    0.0879 C   0  0  0  0  0  0  0  0  0  0  0  0
    3.6300   -6.6880   -1.1629 C   0  0  0  0  0  0  0  0  0  0  0  0
    3.8473   -6.4606    1.3331 C   0  0  0  0  0  0  0  0  0  0  0  0
    5.5005   -4.0469   -0.5321 N   0  0  0  0  0  0  0  0  0  0  0  0
    6.4590   -3.1954   -1.0280 C   0  0  0  0  0  0  0  0  0  0  0  0
    6.4472   -1.9896   -0.7851 O   0  0  0  0  0  0  0  0  0  0  0  0
    7.5270   -3.8717   -1.9102 C   0  0  2  0  0  0  0  0  0  0  0  0
    7.3145   -3.4950   -3.3925 C   0  0  0  0  0  0  0  0  0  0  0  0
    6.0150   -3.9927   -3.9906 C   0  0  0  0  0  0  0  0  0  0  0  0
    5.9656   -5.2111   -4.6832 C   0  0  0  0  0  0  0  0  0  0  0  0
    4.7498   -5.7015   -5.1624 C   0  0  0  0  0  0  0  0  0  0  0  0
    3.5829   -4.9765   -4.9559 C   0  0  0  0  0  0  0  0  0  0  0  0
    3.6149   -3.7534   -4.2988 C   0  0  0  0  0  0  0  0  0  0  0  0
    4.8301   -3.2596   -3.8222 C   0  0  0  0  0  0  0  0  0  0  0  0
    2.4141   -5.5087   -5.4118 O   0  0  0  0  0  0  0  0  0  0  0  0
    7.5476   -5.3400   -1.6654 N   0  0  0  0  0  0  0  0  0  0  0  0
    4.3205    3.9653    2.9557 H   0  0  0  0  0  0  0  0  0  0  0  0
    4.8639    5.4433    2.1617 H   0  0  0  0  0  0  0  0  0  0  0  0
    6.0550    4.3498    2.8848 H   0  0  0  0  0  0  0  0  0  0  0  0
    5.9064    4.2378    0.3592 H   0  0  0  0  0  0  0  0  0  0  0  0
    4.2514    3.6784    0.4990 H   0  0  0  0  0  0  0  0  0  0  0  0
    6.7775    2.2860    1.5256 H   0  0  0  0  0  0  0  0  0  0  0  0
    6.4402    0.6624   -0.2646 H   0  0  0  0  0  0  0  0  0  0  0  0
    4.9593    1.4775   -0.7965 H   0  0  0  0  0  0  0  0  0  0  0  0
    6.5214    2.2878   -0.9244 H   0  0  0  0  0  0  0  0  0  0  0  0
    5.0036    1.7846    3.0823 H   0  0  0  0  0  0  0  0  0  0  0  0
    3.1360    0.4137    3.6628 H   0  0  0  0  0  0  0  0  0  0  0  0
    0.9079    1.1566    1.8791 H   0  0  0  0  0  0  0  0  0  0  0  0
    1.6541   -1.2601    1.4227 H   0  0  0  0  0  0  0  0  0  0  0  0
    1.9736   -1.9305    3.8461 H   0  0  0  0  0  0  0  0  0  0  0  0
    0.9412   -3.0238    2.9108 H   0  0  0  0  0  0  0  0  0  0  0  0
    0.2134   -1.8896    4.0485 H   0  0  0  0  0  0  0  0  0  0  0  0
   -1.2625   -0.8920    2.2557 H   0  0  0  0  0  0  0  0  0  0  0  0
   -0.5513   -0.3107    0.7383 H   0  0  0  0  0  0  0  0  0  0  0  0
   -0.6100   -2.0402    1.0794 H   0  0  0  0  0  0  0  0  0  0  0  0
   -0.6767    2.0796    2.9035 H   0  0  0  0  0  0  0  0  0  0  0  0
   -1.4248    1.3966    5.6756 H   0  0  0  0  0  0  0  0  0  0  0  0
    0.3381    3.2725    5.4829 H   0  0  0  0  0  0  0  0  0  0  0  0
   -1.1069    3.5885    6.4216 H   0  0  0  0  0  0  0  0  0  0  0  0
   -2.0111    5.0838    4.7997 H   0  0  0  0  0  0  0  0  0  0  0  0
   -0.3248    5.5021    5.0539 H   0  0  0  0  0  0  0  0  0  0  0  0
   -0.6373    6.7490    3.0217 H   0  0  0  0  0  0  0  0  0  0  0  0
   -0.5166    5.8879    1.5355 H   0  0  0  0  0  0  0  0  0  0  0  0
   -2.4882    0.8961    3.0027 H   0  0  0  0  0  0  0  0  0  0  0  0
   -4.4337    0.6201    2.0418 H   0  0  0  0  0  0  0  0  0  0  0  0
   -5.3018    0.9486    4.6481 H   0  0  0  0  0  0  0  0  0  0  0  0
   -6.1829    2.2473    3.8636 H   0  0  0  0  0  0  0  0  0  0  0  0
   -6.8232   -3.4391    1.6824 H   0  0  0  0  0  0  0  0  0  0  0  0
   -7.2763   -1.8630    1.0584 H   0  0  0  0  0  0  0  0  0  0  0  0
   -5.6062   -3.0436   -0.3899 H   0  0  0  0  0  0  0  0  0  0  0  0
   -4.3231   -3.7735    1.9909 H   0  0  0  0  0  0  0  0  0  0  0  0
   -3.0338   -5.9936    0.8913 H   0  0  0  0  0  0  0  0  0  0  0  0
   -0.5789   -4.4944    0.0722 H   0  0  0  0  0  0  0  0  0  0  0  0
   -0.1370   -6.3255   -2.8662 H   0  0  0  0  0  0  0  0  0  0  0  0
    0.6126   -5.1838   -1.7108 H   0  0  0  0  0  0  0  0  0  0  0  0
   -1.8670   -4.0758   -2.2428 H   0  0  0  0  0  0  0  0  0  0  0  0
   -2.5900   -2.7760   -3.7240 H   0  0  0  0  0  0  0  0  0  0  0  0
   -0.7178   -1.5968   -5.6906 H   0  0  0  0  0  0  0  0  0  0  0  0
   -0.8449    0.9051   -5.0514 H   0  0  0  0  0  0  0  0  0  0  0  0
   -0.1467    1.1496   -2.1604 H   0  0  0  0  0  0  0  0  0  0  0  0
   -0.4845    4.7029   -2.3027 H   0  0  0  0  0  0  0  0  0  0  0  0
   -2.6498    3.1314   -1.7254 H   0  0  0  0  0  0  0  0  0  0  0  0
   -4.3479    4.2174   -0.4757 H   0  0  0  0  0  0  0  0  0  0  0  0
   -2.7340    3.1678    1.7715 H   0  0  0  0  0  0  0  0  0  0  0  0
   -3.7498    6.5994    0.2637 H   0  0  0  0  0  0  0  0  0  0  0  0
   -3.3288    5.9615    1.8473 H   0  0  0  0  0  0  0  0  0  0  0  0
   -6.1011    5.6710    0.5838 H   0  0  0  0  0  0  0  0  0  0  0  0
   -5.6456    5.2632    2.2431 H   0  0  0  0  0  0  0  0  0  0  0  0
   -5.0879    7.6367    2.7088 H   0  0  0  0  0  0  0  0  0  0  0  0
   -5.5293    8.0680    1.0448 H   0  0  0  0  0  0  0  0  0  0  0  0
   -7.4587    6.6623    2.7672 H   0  0  0  0  0  0  0  0  0  0  0  0
   -6.3344    9.8063    2.1807 H   0  0  0  0  0  0  0  0  0  0  0  0
   -9.3325    9.2747    3.4898 H   0  0  0  0  0  0  0  0  0  0  0  0
   -9.4810    7.8104    2.7150 H   0  0  0  0  0  0  0  0  0  0  0  0
    0.6967    3.9772   -0.2349 H   0  0  0  0  0  0  0  0  0  0  0  0
    1.5431    3.4347   -1.6990 H   0  0  0  0  0  0  0  0  0  0  0  0
    1.4652    1.8260   -0.1872 H   0  0  0  0  0  0  0  0  0  0  0  0
    1.2282   -0.5171   -5.3829 H   0  0  0  0  0  0  0  0  0  0  0  0
    3.1365   -0.3191   -3.8716 H   0  0  0  0  0  0  0  0  0  0  0  0
    2.2230    0.6952   -2.7527 H   0  0  0  0  0  0  0  0  0  0  0  0
    1.7655   -1.0012   -2.9917 H   0  0  0  0  0  0  0  0  0  0  0  0
    1.1301    1.8428   -6.1896 H   0  0  0  0  0  0  0  0  0  0  0  0
    1.8797    2.3844   -4.6741 H   0  0  0  0  0  0  0  0  0  0  0  0
    2.7665    1.3210   -5.7713 H   0  0  0  0  0  0  0  0  0  0  0  0
   -1.7705   -4.1669   -6.3128 H   0  0  0  0  0  0  0  0  0  0  0  0
   -2.9058   -2.8273   -6.3737 H   0  0  0  0  0  0  0  0  0  0  0  0
   -4.4383   -3.9741   -4.7993 H   0  0  0  0  0  0  0  0  0  0  0  0
   -4.1546   -4.9204   -6.2509 H   0  0  0  0  0  0  0  0  0  0  0  0
   -3.3593   -6.4502   -2.7840 H   0  0  0  0  0  0  0  0  0  0  0  0
   -1.5458   -3.8276    2.5025 H   0  0  0  0  0  0  0  0  0  0  0  0
   -1.3398   -5.5692    2.7835 H   0  0  0  0  0  0  0  0  0  0  0  0
   -2.8902   -4.7965    4.1522 H   0  0  0  0  0  0  0  0  0  0  0  0
   -3.0771   -1.7600   -0.7666 H   0  0  0  0  0  0  0  0  0  0  0  0
   -3.4329    1.0809   -0.1076 H   0  0  0  0  0  0  0  0  0  0  0  0
   -2.0801    0.3589   -0.9795 H   0  0  0  0  0  0  0  0  0  0  0  0
   -4.3905   -1.0162   -2.5897 H   0  0  0  0  0  0  0  0  0  0  0  0
   -5.2740    1.3011   -4.2259 H   0  0  0  0  0  0  0  0  0  0  0  0
   -4.8846   -1.5820   -5.2610 H   0  0  0  0  0  0  0  0  0  0  0  0
   -3.7681   -0.2878   -5.6184 H   0  0  0  0  0  0  0  0  0  0  0  0
   -6.8114   -1.9115   -6.6518 H   0  0  0  0  0  0  0  0  0  0  0  0
   -8.1520   -1.2199   -8.6028 H   0  0  0  0  0  0  0  0  0  0  0  0
   -7.7725    0.9902   -9.6614 H   0  0  0  0  0  0  0  0  0  0  0  0
   -6.0381    2.5161   -8.7587 H   0  0  0  0  0  0  0  0  0  0  0  0
   -4.6828    1.8453   -6.8102 H   0  0  0  0  0  0  0  0  0  0  0  0
   -8.3707    0.1279   -3.4126 H   0  0  0  0  0  0  0  0  0  0  0  0
    5.6213   -0.5537    1.3424 H   0  0  0  0  0  0  0  0  0  0  0  0
    5.5534   -2.7915    4.0551 H   0  0  0  0  0  0  0  0  0  0  0  0
    8.0516   -1.5714    2.7250 H   0  0  0  0  0  0  0  0  0  0  0  0
    7.9719   -3.1456    3.4877 H   0  0  0  0  0  0  0  0  0  0  0  0
    7.7646   -0.4284    4.8912 H   0  0  0  0  0  0  0  0  0  0  0  0
    9.1464   -1.5063    4.8571 H   0  0  0  0  0  0  0  0  0  0  0  0
    7.7763   -3.2728    6.0516 H   0  0  0  0  0  0  0  0  0  0  0  0
    8.1487   -1.8140    6.9859 H   0  0  0  0  0  0  0  0  0  0  0  0
    5.8633   -1.0020    6.1591 H   0  0  0  0  0  0  0  0  0  0  0  0
    5.2492   -3.7352    8.8017 H   0  0  0  0  0  0  0  0  0  0  0  0
    3.8624   -1.6851    6.6370 H   0  0  0  0  0  0  0  0  0  0  0  0
    3.6056   -2.5826    8.0234 H   0  0  0  0  0  0  0  0  0  0  0  0
    6.3741   -2.4684    1.2132 H   0  0  0  0  0  0  0  0  0  0  0  0
    4.0967   -2.5875   -0.1936 H   0  0  0  0  0  0  0  0  0  0  0  0
    2.7461   -4.2189   -1.1073 H   0  0  0  0  0  0  0  0  0  0  0  0
    2.2593   -4.0605    0.5573 H   0  0  0  0  0  0  0  0  0  0  0  0
    2.0671   -6.2907    0.1960 H   0  0  0  0  0  0  0  0  0  0  0  0
    3.4837   -7.7699   -1.0698 H   0  0  0  0  0  0  0  0  0  0  0  0
    4.6941   -6.5187   -1.3339 H   0  0  0  0  0  0  0  0  0  0  0  0
    3.0838   -6.3614   -2.0536 H   0  0  0  0  0  0  0  0  0  0  0  0
    3.7689   -7.5500    1.4207 H   0  0  0  0  0  0  0  0  0  0  0  0
    4.9119   -6.2112    1.3097 H   0  0  0  0  0  0  0  0  0  0  0  0
    3.4066   -6.0331    2.2385 H   0  0  0  0  0  0  0  0  0  0  0  0
    5.8217   -5.0062   -0.4312 H   0  0  0  0  0  0  0  0  0  0  0  0
    8.4936   -3.4782   -1.5732 H   0  0  0  0  0  0  0  0  0  0  0  0
    8.1529   -3.8792   -3.9884 H   0  0  0  0  0  0  0  0  0  0  0  0
    7.3512   -2.4030   -3.5033 H   0  0  0  0  0  0  0  0  0  0  0  0
    6.8688   -5.7939   -4.8483 H   0  0  0  0  0  0  0  0  0  0  0  0
    4.7086   -6.6502   -5.6903 H   0  0  0  0  0  0  0  0  0  0  0  0
    2.7066   -3.1795   -4.1475 H   0  0  0  0  0  0  0  0  0  0  0  0
    4.8415   -2.3024   -3.3043 H   0  0  0  0  0  0  0  0  0  0  0  0
    1.6637   -4.9395   -5.1271 H   0  0  0  0  0  0  0  0  0  0  0  0
    6.7679   -5.7577   -2.1810 H   0  0  0  0  0  0  0  0  0  0  0  0
    8.3803   -5.7250   -2.1151 H   0  0  0  0  0  0  0  0  0  0  0  0
  1  2  1  0
  2  3  1  0
  3  4  1  0
  3  5  1  0
  5  6  1  0
  6  7  2  0
  6  8  1  0
  8  9  1  0
  9 10  1  0
 10 11  1  0
 10 12  1  0
  9 13  1  0
 13 14  2  0
 13 15  1  0
 15 16  1  0
 16 17  1  0
 17 18  1  0
 18 19  1  0
 19 20  2  0
 19 21  1  0
 16 22  1  0
 22 23  2  0
 22 24  1  0
 24 25  1  0
 25 26  1  0
 26 27  1  0
 27 28  1  0
 28 29  1  0
 29 30  1  0
 30 31  1  0
 31 32  1  0
 32 33  2  0
 32 34  1  0
 34 35  1  0
 35 36  1  0
 36 37  2  0
 36 38  1  0
 38 39  1  0
 39 40  1  0
 40 41  2  0
 40 42  1  0
 42 43  1  0
 43 44  1  0
 44 45  2  0
 44 46  1  0
 46 47  1  0
 47 48  1  0
 48 49  2  0
 48 50  1  0
 50 51  1  0
 51 52  1  0
 52 53  2  0
 52 54  1  0
 54 55  1  0
 55 56  1  0
 56 57  2  0
 54 58  1  0
 58 59  1  0
 59 60  1  0
 60 61  1  0
 61 62  1  0
 62 63  2  3
 62 64  1  0
 50 65  1  0
 65 66  1  0
 46 67  1  0
 67 68  1  0
 67 69  1  0
 42 70  1  0
 70 71  1  0
 71 72  1  0
 72 73  2  0
 72 74  1  0
 34 75  1  0
 75 76  1  0
 30 77  1  0
 77 78  2  0
 77 79  1  0
 79 80  1  0
 80 81  1  0
 81 82  2  0
 81 83  1  0
 83 84  1  0
 84 85  1  0
 85 86  1  0
 86 87  2  0
 87 88  1  0
 88 89  2  0
 89 90  1  0
 90 91  2  0
 84 92  1  0
 92 93  2  0
 92 94  1  0
  5 95  1  0
 95 96  1  0
 96 97  2  0
 96 98  1  0
 98 99  1  0
 99100  1  0
100101  1  0
101102  1  0
102103  1  0
103104  2  3
103105  1  0
 98106  1  0
106107  1  0
107108  2  0
107109  1  0
109110  1  0
110111  1  0
111112  1  0
111113  1  0
109114  1  0
114115  1  0
115116  2  0
115117  1  0
117118  1  0
118119  1  0
119120  1  0
120121  2  0
121122  1  0
122123  2  0
123124  1  0
122125  1  0
117126  1  0
 56 25  1  0
 91 86  1  0
124119  2  0
  1127  1  0
  1128  1  0
  1129  1  0
  2130  1  0
  2131  1  0
  3132  1  1
  4133  1  0
  4134  1  0
  4135  1  0
  5136  1  1
  8137  1  0
  9138  1  6
 10139  1  0
 11140  1  0
 11141  1  0
 11142  1  0
 12143  1  0
 12144  1  0
 12145  1  0
 15146  1  0
 16147  1  1
 17148  1  0
 17149  1  0
 18150  1  0
 18151  1  0
 21152  1  0
 21153  1  0
 24154  1  0
 25155  1  6
 26156  1  0
 26157  1  0
 29158  1  0
 29159  1  0
 30160  1  6
 31161  1  0
 34162  1  1
 35163  1  0
 38164  1  0
 38165  1  0
 39166  1  0
 42167  1  1
 43168  1  0
 46169  1  6
 47170  1  0
 50171  1  6
 51172  1  0
 54173  1  6
 55174  1  0
 58175  1  0
 58176  1  0
 59177  1  0
 59178  1  0
 60179  1  0
 60180  1  0
 61181  1  0
 63182  1  0
 64183  1  0
 64184  1  0
 65185  1  0
 65186  1  0
 66187  1  0
 67188  1  0
 68189  1  0
 68190  1  0
 68191  1  0
 69192  1  0
 69193  1  0
 69194  1  0
 70195  1  0
 70196  1  0
 71197  1  0
 71198  1  0
 74199  1  0
 75200  1  0
 75201  1  0
 76202  1  0
 79203  1  0
 80204  1  0
 80205  1  0
 83206  1  0
 84207  1  6
 85208  1  0
 85209  1  0
 87210  1  0
 88211  1  0
 89212  1  0
 90213  1  0
 91214  1  0
 94215  1  0
 95216  1  0
 98217  1  1
 99218  1  0
 99219  1  0
100220  1  0
100221  1  0
101222  1  0
101223  1  0
102224  1  0
104225  1  0
105226  1  0
105227  1  0
106228  1  0
109229  1  6
110230  1  0
110231  1  0
111232  1  0
112233  1  0
112234  1  0
112235  1  0
113236  1  0
113237  1  0
113238  1  0
114239  1  0
117240  1  1
118241  1  0
118242  1  0
120243  1  0
121244  1  0
123245  1  0
124246  1  0
125247  1  0
126248  1  0
126249  1  0
M  END
