
     RDKit          3D

172172  0  0  0  0  0  0  0  0999 V2000
   -2.1473    2.9804    1.0406 C   0  0  0  0  0  0  0  0  0  0  0  0
   -1.3203    2.7197    2.2911 C   0  0  1  0  0  0  0  0  0  0  0  0
   -1.6614    1.3181    2.8495 C   0  0  0  0  0  0  0  0  0  0  0  0
   -2.6936    1.1107    3.4853 O   0  0  0  0  0  0  0  0  0  0  0  0
   -0.7910    0.3083    2.4890 N   0  0  0  0  0  0  0  0  0  0  0  0
   -1.0499   -1.1035    2.7585 C   0  0  1  0  0  0  0  0  0  0  0  0
   -1.3588   -1.4407    4.2275 C   0  0  0  0  0  0  0  0  0  0  0  0
   -0.3467   -0.8798    5.2497 C   0  0  0  0  0  0  0  0  0  0  0  0
   -0.7816   -1.2601    6.6676 C   0  0  0  0  0  0  0  0  0  0  0  0
    1.0784   -1.3755    4.9948 C   0  0  0  0  0  0  0  0  0  0  0  0
   -2.0970   -1.6504    1.7505 C   0  0  0  0  0  0  0  0  0  0  0  0
   -2.5535   -0.9848    0.8225 O   0  0  0  0  0  0  0  0  0  0  0  0
   -2.4038   -2.9941    1.9021 N   0  0  0  0  0  0  0  0  0  0  0  0
   -2.9511   -3.7297    0.7471 C   0  0  1  0  0  0  0  0  0  0  0  0
   -2.8256   -5.2410    0.9435 C   0  0  0  0  0  0  0  0  0  0  0  0
   -1.3733   -5.6162    1.0657 C   0  0  0  0  0  0  0  0  0  0  0  0
   -0.6852   -5.2516    2.0166 O   0  0  0  0  0  0  0  0  0  0  0  0
   -0.8630   -6.3615    0.0508 N   0  0  0  0  0  0  0  0  0  0  0  0
   -4.4437   -3.4330    0.5224 C   0  0  0  0  0  0  0  0  0  0  0  0
   -4.9782   -3.5442   -0.5772 O   0  0  0  0  0  0  0  0  0  0  0  0
   -5.1634   -3.2289    1.6819 N   0  0  0  0  0  0  0  0  0  0  0  0
   -6.6154   -2.9756    1.6693 C   0  0  1  0  0  0  0  0  0  0  0  0
   -7.2758   -3.6837    2.8585 C   0  0  0  0  0  0  0  0  0  0  0  0
   -7.0189   -5.0915    2.8158 O   0  0  0  0  0  0  0  0  0  0  0  0
   -6.9361   -1.4711    1.7039 C   0  0  0  0  0  0  0  0  0  0  0  0
   -7.8671   -1.0019    2.3530 O   0  0  0  0  0  0  0  0  0  0  0  0
   -6.1569   -0.7014    0.8787 N   0  0  0  0  0  0  0  0  0  0  0  0
   -6.3575    0.7416    0.6981 C   0  0  1  0  0  0  0  0  0  0  0  0
   -5.9268    1.5277    1.9405 C   0  0  0  0  0  0  0  0  0  0  0  0
   -6.5539    2.8088    1.9840 O   0  0  0  0  0  0  0  0  0  0  0  0
   -5.5450    1.2066   -0.5206 C   0  0  0  0  0  0  0  0  0  0  0  0
   -5.3821    2.3552   -0.9067 O   0  0  0  0  0  0  0  0  0  0  0  0
   -4.9987    0.1658   -1.2012 O   0  0  0  0  0  0  0  0  0  0  0  0
    0.1050    2.8954    1.9995 N   0  0  0  0  0  0  0  0  0  0  0  0
    0.6918    4.1450    2.0907 C   0  0  0  0  0  0  0  0  0  0  0  0
    0.0526    5.1540    2.3815 O   0  0  0  0  0  0  0  0  0  0  0  0
    2.1784    4.2092    1.6897 C   0  0  2  0  0  0  0  0  0  0  0  0
    2.3631    4.2204    0.1641 C   0  0  0  0  0  0  0  0  0  0  0  0
    1.7501    5.4632   -0.4861 C   0  0  0  0  0  0  0  0  0  0  0  0
    2.2796    5.7192   -1.8960 C   0  0  0  0  0  0  0  0  0  0  0  0
    1.7809    4.7042   -2.8291 N   0  0  0  0  0  0  0  0  0  0  0  0
    2.0901    4.8691   -4.0641 C   0  0  0  0  0  0  0  0  0  0  0  0
    1.6580    4.0272   -5.0252 N   0  0  0  0  0  0  0  0  0  0  0  0
    2.8441    5.8343   -4.6405 N   0  0  0  0  0  0  0  0  0  0  0  0
    2.8805    3.0697    2.2755 N   0  0  0  0  0  0  0  0  0  0  0  0
    4.2431    3.0785    2.5028 C   0  0  0  0  0  0  0  0  0  0  0  0
    4.9235    4.0987    2.4551 O   0  0  0  0  0  0  0  0  0  0  0  0
    4.7927    1.7119    2.9855 C   0  0  2  0  0  0  0  0  0  0  0  0
    6.3117    1.5948    2.7832 C   0  0  0  0  0  0  0  0  0  0  0  0
    6.8923    0.1997    3.0044 C   0  0  0  0  0  0  0  0  0  0  0  0
    6.4034   -0.4340    4.2746 C   0  0  0  0  0  0  0  0  0  0  0  0
    5.3342   -1.0117    4.4069 O   0  0  0  0  0  0  0  0  0  0  0  0
    7.2435   -0.2647    5.3072 O   0  0  0  0  0  0  0  0  0  0  0  0
    4.0179    0.6039    2.4194 N   0  0  0  0  0  0  0  0  0  0  0  0
    4.0038    0.3504    1.0644 C   0  0  0  0  0  0  0  0  0  0  0  0
    4.5955    1.0445    0.2415 O   0  0  0  0  0  0  0  0  0  0  0  0
    3.1496   -0.8610    0.6561 C   0  0  2  0  0  0  0  0  0  0  0  0
    4.0457   -2.0998    0.5651 C   0  0  0  0  0  0  0  0  0  0  0  0
    3.3340   -3.3756    0.0758 C   0  0  0  0  0  0  0  0  0  0  0  0
    2.1654   -3.7734    0.9760 C   0  0  0  0  0  0  0  0  0  0  0  0
    4.3390   -4.5272   -0.0091 C   0  0  0  0  0  0  0  0  0  0  0  0
    2.5360   -0.5291   -0.6236 N   0  0  0  0  0  0  0  0  0  0  0  0
    1.4372    0.3090   -0.6746 C   0  0  0  0  0  0  0  0  0  0  0  0
    0.8886    0.7382    0.3425 O   0  0  0  0  0  0  0  0  0  0  0  0
    1.0329    0.7414   -2.1027 C   0  0  2  0  0  0  0  0  0  0  0  0
   -0.4942    0.7719   -2.2521 C   0  0  0  0  0  0  0  0  0  0  0  0
   -1.0203    2.1895   -2.4871 C   0  0  0  0  0  0  0  0  0  0  0  0
   -2.5297    2.1863   -2.5545 C   0  0  0  0  0  0  0  0  0  0  0  0
   -3.2077    1.1799   -2.7506 O   0  0  0  0  0  0  0  0  0  0  0  0
   -3.1167    3.4027   -2.3877 N   0  0  0  0  0  0  0  0  0  0  0  0
    1.6389   -0.1417   -3.0976 N   0  0  0  0  0  0  0  0  0  0  0  0
    1.6886    0.2273   -4.4241 C   0  0  0  0  0  0  0  0  0  0  0  0
    1.2769    1.3121   -4.8255 O   0  0  0  0  0  0  0  0  0  0  0  0
    2.1912   -0.8800   -5.3663 C   0  0  2  0  0  0  0  0  0  0  0  0
    2.7529   -0.3255   -6.6838 C   0  0  0  0  0  0  0  0  0  0  0  0
    4.1316    0.3195   -6.5345 C   0  0  0  0  0  0  0  0  0  0  0  0
    4.0661    1.6889   -5.9172 C   0  0  0  0  0  0  0  0  0  0  0  0
    3.7263    2.7150   -6.4828 O   0  0  0  0  0  0  0  0  0  0  0  0
    4.3695    1.6736   -4.6059 O   0  0  0  0  0  0  0  0  0  0  0  0
    1.0245   -1.7307   -5.6332 N   0  0  0  0  0  0  0  0  0  0  0  0
    0.6355   -2.6957   -4.7256 C   0  0  0  0  0  0  0  0  0  0  0  0
    1.2793   -2.9205   -3.7009 O   0  0  0  0  0  0  0  0  0  0  0  0
   -0.6823   -3.4158   -5.0759 C   0  0  2  0  0  0  0  0  0  0  0  0
   -1.8994   -2.5757   -4.7165 C   0  0  0  0  0  0  0  0  0  0  0  0
   -2.2090   -2.9741   -3.2719 C   0  0  0  0  0  0  0  0  0  0  0  0
   -1.6202   -4.3583   -3.1618 C   0  0  0  0  0  0  0  0  0  0  0  0
   -1.7314   -5.1272   -2.2209 O   0  0  0  0  0  0  0  0  0  0  0  0
   -0.8637   -4.6051   -4.2871 N   0  0  0  0  0  0  0  0  0  0  0  0
   -1.8631    3.9207    0.5572 H   0  0  0  0  0  0  0  0  0  0  0  0
   -3.2113    3.0391    1.2832 H   0  0  0  0  0  0  0  0  0  0  0  0
   -2.0196    2.1707    0.3163 H   0  0  0  0  0  0  0  0  0  0  0  0
   -1.5938    3.4416    3.0701 H   0  0  0  0  0  0  0  0  0  0  0  0
   -0.2577    0.4818    1.6400 H   0  0  0  0  0  0  0  0  0  0  0  0
   -0.1160   -1.6093    2.4814 H   0  0  0  0  0  0  0  0  0  0  0  0
   -2.3664   -1.0931    4.4856 H   0  0  0  0  0  0  0  0  0  0  0  0
   -1.3974   -2.5315    4.3451 H   0  0  0  0  0  0  0  0  0  0  0  0
   -0.3423    0.2151    5.1921 H   0  0  0  0  0  0  0  0  0  0  0  0
   -0.0995   -0.8345    7.4112 H   0  0  0  0  0  0  0  0  0  0  0  0
   -1.7861   -0.8796    6.8813 H   0  0  0  0  0  0  0  0  0  0  0  0
   -0.7940   -2.3470    6.8022 H   0  0  0  0  0  0  0  0  0  0  0  0
    1.4676   -1.0008    4.0432 H   0  0  0  0  0  0  0  0  0  0  0  0
    1.7576   -1.0260    5.7800 H   0  0  0  0  0  0  0  0  0  0  0  0
    1.1204   -2.4697    4.9741 H   0  0  0  0  0  0  0  0  0  0  0  0
   -1.7151   -3.5237    2.4374 H   0  0  0  0  0  0  0  0  0  0  0  0
   -2.4005   -3.4013   -0.1420 H   0  0  0  0  0  0  0  0  0  0  0  0
   -3.3336   -5.5731    1.8575 H   0  0  0  0  0  0  0  0  0  0  0  0
   -3.2892   -5.7828    0.1105 H   0  0  0  0  0  0  0  0  0  0  0  0
    0.1381   -6.5034    0.0672 H   0  0  0  0  0  0  0  0  0  0  0  0
   -1.2536   -6.2109   -0.8843 H   0  0  0  0  0  0  0  0  0  0  0  0
   -4.6279   -2.8464    2.4563 H   0  0  0  0  0  0  0  0  0  0  0  0
   -7.0296   -3.3820    0.7391 H   0  0  0  0  0  0  0  0  0  0  0  0
   -8.3613   -3.5425    2.8556 H   0  0  0  0  0  0  0  0  0  0  0  0
   -6.8875   -3.3034    3.8100 H   0  0  0  0  0  0  0  0  0  0  0  0
   -6.0979   -5.1959    2.5174 H   0  0  0  0  0  0  0  0  0  0  0  0
   -5.5613   -1.1519    0.1838 H   0  0  0  0  0  0  0  0  0  0  0  0
   -7.4167    0.9061    0.4695 H   0  0  0  0  0  0  0  0  0  0  0  0
   -6.2103    1.0041    2.8591 H   0  0  0  0  0  0  0  0  0  0  0  0
   -4.8440    1.6691    1.9612 H   0  0  0  0  0  0  0  0  0  0  0  0
   -6.2663    3.2296    2.8131 H   0  0  0  0  0  0  0  0  0  0  0  0
   -4.4238    0.5658   -1.9058 H   0  0  0  0  0  0  0  0  0  0  0  0
    0.5511    2.2149    1.3905 H   0  0  0  0  0  0  0  0  0  0  0  0
    2.6038    5.1196    2.1287 H   0  0  0  0  0  0  0  0  0  0  0  0
    1.9232    3.3222   -0.2839 H   0  0  0  0  0  0  0  0  0  0  0  0
    3.4361    4.1839   -0.0631 H   0  0  0  0  0  0  0  0  0  0  0  0
    0.6576    5.3709   -0.5084 H   0  0  0  0  0  0  0  0  0  0  0  0
    1.9882    6.3429    0.1247 H   0  0  0  0  0  0  0  0  0  0  0  0
    3.3762    5.7315   -1.8850 H   0  0  0  0  0  0  0  0  0  0  0  0
    1.9253    6.7117   -2.2016 H   0  0  0  0  0  0  0  0  0  0  0  0
    1.2779    3.1502   -4.6656 H   0  0  0  0  0  0  0  0  0  0  0  0
    2.3531    3.8086   -5.7393 H   0  0  0  0  0  0  0  0  0  0  0  0
    2.5102    6.0747   -5.5674 H   0  0  0  0  0  0  0  0  0  0  0  0
    2.9835    6.6647   -4.0810 H   0  0  0  0  0  0  0  0  0  0  0  0
    2.4196    2.1689    2.2939 H   0  0  0  0  0  0  0  0  0  0  0  0
    4.5814    1.6864    4.0629 H   0  0  0  0  0  0  0  0  0  0  0  0
    6.5857    1.9241    1.7731 H   0  0  0  0  0  0  0  0  0  0  0  0
    6.8043    2.2992    3.4666 H   0  0  0  0  0  0  0  0  0  0  0  0
    6.6327   -0.4710    2.1773 H   0  0  0  0  0  0  0  0  0  0  0  0
    7.9875    0.2433    3.0178 H   0  0  0  0  0  0  0  0  0  0  0  0
    6.8167   -0.7047    6.0721 H   0  0  0  0  0  0  0  0  0  0  0  0
    3.8343   -0.1740    3.0506 H   0  0  0  0  0  0  0  0  0  0  0  0
    2.3584   -1.0013    1.4012 H   0  0  0  0  0  0  0  0  0  0  0  0
    4.8845   -1.8870   -0.1123 H   0  0  0  0  0  0  0  0  0  0  0  0
    4.4961   -2.2866    1.5493 H   0  0  0  0  0  0  0  0  0  0  0  0
    2.9440   -3.2035   -0.9352 H   0  0  0  0  0  0  0  0  0  0  0  0
    1.3568   -3.0379    0.9270 H   0  0  0  0  0  0  0  0  0  0  0  0
    1.7482   -4.7346    0.6601 H   0  0  0  0  0  0  0  0  0  0  0  0
    2.4802   -3.8683    2.0206 H   0  0  0  0  0  0  0  0  0  0  0  0
    3.8613   -5.4328   -0.3981 H   0  0  0  0  0  0  0  0  0  0  0  0
    5.1662   -4.2733   -0.6803 H   0  0  0  0  0  0  0  0  0  0  0  0
    4.7594   -4.7618    0.9749 H   0  0  0  0  0  0  0  0  0  0  0  0
    3.1753   -0.4141   -1.4068 H   0  0  0  0  0  0  0  0  0  0  0  0
    1.4644    1.7379   -2.2571 H   0  0  0  0  0  0  0  0  0  0  0  0
   -0.8139    0.1381   -3.0892 H   0  0  0  0  0  0  0  0  0  0  0  0
   -0.9841    0.3501   -1.3652 H   0  0  0  0  0  0  0  0  0  0  0  0
   -0.6442    2.5915   -3.4325 H   0  0  0  0  0  0  0  0  0  0  0  0
   -0.6937    2.8504   -1.6767 H   0  0  0  0  0  0  0  0  0  0  0  0
   -4.1202    3.3842   -2.2042 H   0  0  0  0  0  0  0  0  0  0  0  0
   -2.6113    4.1757   -1.9746 H   0  0  0  0  0  0  0  0  0  0  0  0
    1.6568   -1.1447   -2.8978 H   0  0  0  0  0  0  0  0  0  0  0  0
    2.9563   -1.4746   -4.8529 H   0  0  0  0  0  0  0  0  0  0  0  0
    2.8504   -1.1563   -7.3950 H   0  0  0  0  0  0  0  0  0  0  0  0
    2.0495    0.3855   -7.1356 H   0  0  0  0  0  0  0  0  0  0  0  0
    4.8111   -0.3181   -5.9576 H   0  0  0  0  0  0  0  0  0  0  0  0
    4.5939    0.4404   -7.5215 H   0  0  0  0  0  0  0  0  0  0  0  0
    4.2270    2.5966   -4.2929 H   0  0  0  0  0  0  0  0  0  0  0  0
    0.3211   -1.3561   -6.2620 H   0  0  0  0  0  0  0  0  0  0  0  0
   -0.6643   -3.6937   -6.1345 H   0  0  0  0  0  0  0  0  0  0  0  0
   -1.7495   -1.4972   -4.8219 H   0  0  0  0  0  0  0  0  0  0  0  0
   -2.7457   -2.8611   -5.3541 H   0  0  0  0  0  0  0  0  0  0  0  0
   -3.2835   -2.9873   -3.0760 H   0  0  0  0  0  0  0  0  0  0  0  0
   -1.7005   -2.3171   -2.5598 H   0  0  0  0  0  0  0  0  0  0  0  0
   -0.2147   -5.3826   -4.2777 H   0  0  0  0  0  0  0  0  0  0  0  0
  1  2  1  0
  2  3  1  0
  3  4  2  0
  3  5  1  0
  5  6  1  0
  6  7  1  0
  7  8  1  0
  8  9  1  0
  8 10  1  0
  6 11  1  0
 11 12  2  0
 11 13  1  0
 13 14  1  0
 14 15  1  0
 15 16  1  0
 16 17  2  0
 16 18  1  0
 14 19  1  0
 19 20  2  0
 19 21  1  0
 21 22  1  0
 22 23  1  0
 23 24  1  0
 22 25  1  0
 25 26  2  0
 25 27  1  0
 27 28  1  0
 28 29  1  0
 29 30  1  0
 28 31  1  0
 31 32  2  0
 31 33  1  0
  2 34  1  0
 34 35  1  0
 35 36  2  0
 35 37  1  0
 37 38  1  0
 38 39  1  0
 39 40  1  0
 40 41  1  0
 41 42  2  3
 42 43  1  0
 42 44  1  0
 37 45  1  0
 45 46  1  0
 46 47  2  0
 46 48  1  0
 48 49  1  0
 49 50  1  0
 50 51  1  0
 51 52  2  0
 51 53  1  0
 48 54  1  0
 54 55  1  0
 55 56  2  0
 55 57  1  0
 57 58  1  0
 58 59  1  0
 59 60  1  0
 59 61  1  0
 57 62  1  0
 62 63  1  0
 63 64  2  0
 63 65  1  0
 65 66  1  0
 66 67  1  0
 67 68  1  0
 68 69  2  0
 68 70  1  0
 65 71  1  0
 71 72  1  0
 72 73  2  0
 72 74  1  0
 74 75  1  0
 75 76  1  0
 76 77  1  0
 77 78  2  0
 77 79  1  0
 74 80  1  0
 80 81  1  0
 81 82  2  0
 81 83  1  0
 83 84  1  0
 84 85  1  0
 85 86  1  0
 86 87  2  0
 86 88  1  0
 88 83  1  0
  1 89  1  0
  1 90  1  0
  1 91  1  0
  2 92  1  1
  5 93  1  0
  6 94  1  6
  7 95  1  0
  7 96  1  0
  8 97  1  0
  9 98  1  0
  9 99  1  0
  9100  1  0
 10101  1  0
 10102  1  0
 10103  1  0
 13104  1  0
 14105  1  6
 15106  1  0
 15107  1  0
 18108  1  0
 18109  1  0
 21110  1  0
 22111  1  6
 23112  1  0
 23113  1  0
 24114  1  0
 27115  1  0
 28116  1  6
 29117  1  0
 29118  1  0
 30119  1  0
 33120  1  0
 34121  1  0
 37122  1  1
 38123  1  0
 38124  1  0
 39125  1  0
 39126  1  0
 40127  1  0
 40128  1  0
 43129  1  0
 43130  1  0
 44131  1  0
 44132  1  0
 45133  1  0
 48134  1  1
 49135  1  0
 49136  1  0
 50137  1  0
 50138  1  0
 53139  1  0
 54140  1  0
 57141  1  1
 58142  1  0
 58143  1  0
 59144  1  0
 60145  1  0
 60146  1  0
 60147  1  0
 61148  1  0
 61149  1  0
 61150  1  0
 62151  1  0
 65152  1  6
 66153  1  0
 66154  1  0
 67155  1  0
 67156  1  0
 70157  1  0
 70158  1  0
 71159  1  0
 74160  1  1
 75161  1  0
 75162  1  0
 76163  1  0
 76164  1  0
 79165  1  0
 80166  1  0
 83167  1  6
 84168  1  0
 84169  1  0
 85170  1  0
 85171  1  0
 88172  1  0
M  END
