
     RDKit          3D

198201  0  0  0  0  0  0  0  0999 V2000
   -3.9753    3.7482    1.1496 C   0  0  0  0  0  0  0  0  0  0  0  0
   -3.0954    2.7708    1.9203 C   0  0  1  0  0  0  0  0  0  0  0  0
   -3.4130    1.2959    1.5853 C   0  0  0  0  0  0  0  0  0  0  0  0
   -4.4380    0.9339    1.0134 O   0  0  0  0  0  0  0  0  0  0  0  0
   -2.5071    0.3953    2.1120 N   0  0  0  0  0  0  0  0  0  0  0  0
   -2.5500   -1.0300    1.8102 C   0  0  1  0  0  0  0  0  0  0  0  0
   -3.8270   -1.7645    2.2274 C   0  0  0  0  0  0  0  0  0  0  0  0
   -3.8255   -3.1454    1.6355 C   0  0  0  0  0  0  0  0  0  0  0  0
   -2.8972   -3.9365    1.6756 O   0  0  0  0  0  0  0  0  0  0  0  0
   -4.9549   -3.4115    0.9521 O   0  0  0  0  0  0  0  0  0  0  0  0
   -2.1131   -1.2406    0.3444 C   0  0  0  0  0  0  0  0  0  0  0  0
   -0.9297   -1.3327    0.0185 O   0  0  0  0  0  0  0  0  0  0  0  0
   -3.1396   -1.2524   -0.5694 N   0  0  0  0  0  0  0  0  0  0  0  0
   -2.9289   -1.5124   -1.9932 C   0  0  1  0  0  0  0  0  0  0  0  0
   -2.4126   -2.9388   -2.2250 C   0  0  0  0  0  0  0  0  0  0  0  0
   -3.5177   -3.9594   -2.3031 C   0  0  0  0  0  0  0  0  0  0  0  0
   -4.2105   -4.3669   -1.3848 O   0  0  0  0  0  0  0  0  0  0  0  0
   -3.7231   -4.3442   -3.5818 O   0  0  0  0  0  0  0  0  0  0  0  0
   -4.2708   -1.1908   -2.7008 C   0  0  0  0  0  0  0  0  0  0  0  0
   -5.1795   -0.5822   -2.1324 O   0  0  0  0  0  0  0  0  0  0  0  0
   -4.3987   -1.6113   -4.0114 N   0  0  0  0  0  0  0  0  0  0  0  0
   -5.7382   -1.6610   -4.6053 C   0  0  1  0  0  0  0  0  0  0  0  0
   -5.6414   -1.7879   -6.1183 C   0  0  0  0  0  0  0  0  0  0  0  0
   -6.4449   -2.8952   -3.9927 C   0  0  0  0  0  0  0  0  0  0  0  0
   -6.2978   -4.0399   -4.4235 O   0  0  0  0  0  0  0  0  0  0  0  0
   -7.0872   -2.6335   -2.8063 N   0  0  0  0  0  0  0  0  0  0  0  0
   -7.8507   -3.6308   -2.0886 C   0  0  0  0  0  0  0  0  0  0  0  0
   -9.3264   -3.5927   -2.5026 C   0  0  0  0  0  0  0  0  0  0  0  0
   -9.8256   -2.6818   -3.1598 O   0  0  0  0  0  0  0  0  0  0  0  0
  -10.0546   -4.6761   -2.0461 N   0  0  0  0  0  0  0  0  0  0  0  0
  -11.5106   -4.6669   -2.1409 C   0  0  1  0  0  0  0  0  0  0  0  0
  -12.0692   -6.0778   -2.3698 C   0  0  0  0  0  0  0  0  0  0  0  0
  -11.5922   -6.7541   -3.6710 C   0  0  0  0  0  0  0  0  0  0  0  0
  -12.1484   -8.1786   -3.7465 C   0  0  0  0  0  0  0  0  0  0  0  0
  -12.0033   -5.9725   -4.9194 C   0  0  0  0  0  0  0  0  0  0  0  0
  -12.0514   -4.1152   -0.8054 C   0  0  0  0  0  0  0  0  0  0  0  0
  -11.4043   -4.1706    0.2399 O   0  0  0  0  0  0  0  0  0  0  0  0
  -13.3319   -3.6198   -0.8660 N   0  0  0  0  0  0  0  0  0  0  0  0
  -13.9898   -3.0067    0.2920 C   0  0  1  0  0  0  0  0  0  0  0  0
  -13.4872   -1.5656    0.5328 C   0  0  0  0  0  0  0  0  0  0  0  0
  -13.8479   -0.6025   -0.6029 C   0  0  0  0  0  0  0  0  0  0  0  0
  -13.9776   -1.0054    1.8700 C   0  0  0  0  0  0  0  0  0  0  0  0
  -15.4960   -3.0895    0.0424 C   0  0  0  0  0  0  0  0  0  0  0  0
  -16.0388   -3.1366   -1.0530 O   0  0  0  0  0  0  0  0  0  0  0  0
  -16.2317   -3.1088    1.1700 O   0  0  0  0  0  0  0  0  0  0  0  0
   -1.6635    3.0548    1.8148 N   0  0  0  0  0  0  0  0  0  0  0  0
   -1.0054    3.0976    0.5983 C   0  0  0  0  0  0  0  0  0  0  0  0
   -1.5735    2.9498   -0.4799 O   0  0  0  0  0  0  0  0  0  0  0  0
    0.5264    3.2329    0.7359 C   0  0  2  0  0  0  0  0  0  0  0  0
    1.1156    4.0411   -0.4316 C   0  0  0  0  0  0  0  0  0  0  0  0
    2.3158    3.2266   -0.8992 C   0  0  0  0  0  0  0  0  0  0  0  0
    1.9008    1.7980   -0.6046 C   0  0  0  0  0  0  0  0  0  0  0  0
    1.1644    1.9165    0.6398 N   0  0  0  0  0  0  0  0  0  0  0  0
    1.0552    0.9886    1.6573 C   0  0  0  0  0  0  0  0  0  0  0  0
    0.2132    1.1504    2.5538 O   0  0  0  0  0  0  0  0  0  0  0  0
    1.9333   -0.2975    1.5865 C   0  0  2  0  0  0  0  0  0  0  0  0
    1.6140   -1.3116    2.7007 C   0  0  0  0  0  0  0  0  0  0  0  0
    2.0320   -0.8975    4.1150 C   0  0  0  0  0  0  0  0  0  0  0  0
    1.4084   -1.7620    5.2185 C   0  0  0  0  0  0  0  0  0  0  0  0
   -0.1233   -1.7496    5.2889 C   0  0  0  0  0  0  0  0  0  0  0  0
   -0.6902   -0.4065    5.3602 N   0  0  0  0  0  0  0  0  0  0  0  0
    3.3670   -0.0670    1.4208 N   0  0  0  0  0  0  0  0  0  0  0  0
    4.0979    0.7952    2.2045 C   0  0  0  0  0  0  0  0  0  0  0  0
    3.5877    1.5430    3.0362 O   0  0  0  0  0  0  0  0  0  0  0  0
    5.6237    0.6909    2.0565 C   0  0  0  0  0  0  0  0  0  0  0  0
    6.1322    0.4313    0.7177 N   0  0  0  0  0  0  0  0  0  0  0  0
    6.1431   -0.8453    0.1884 C   0  0  0  0  0  0  0  0  0  0  0  0
    5.4257   -1.7395    0.6366 O   0  0  0  0  0  0  0  0  0  0  0  0
    6.8917   -0.9696   -1.1486 C   0  0  2  0  0  0  0  0  0  0  0  0
    7.2169   -2.3718   -1.6392 C   0  0  0  0  0  0  0  0  0  0  0  0
    8.2761   -2.1309   -2.7285 C   0  0  0  0  0  0  0  0  0  0  0  0
    8.6266   -0.6380   -2.6436 C   0  0  0  0  0  0  0  0  0  0  0  0
    8.1406   -0.2324   -1.3351 N   0  0  0  0  0  0  0  0  0  0  0  0
    9.0871   -0.2801   -0.2952 C   0  0  0  0  0  0  0  0  0  0  0  0
    8.9671   -1.0060    0.6900 O   0  0  0  0  0  0  0  0  0  0  0  0
   10.2427    0.7307   -0.4476 C   0  0  2  0  0  0  0  0  0  0  0  0
   11.5645    0.0461   -0.8040 C   0  0  0  0  0  0  0  0  0  0  0  0
   12.2789   -0.0983    0.5351 C   0  0  0  0  0  0  0  0  0  0  0  0
   11.8592    1.1538    1.2841 C   0  0  0  0  0  0  0  0  0  0  0  0
   10.4985    1.3937    0.8329 N   0  0  0  0  0  0  0  0  0  0  0  0
    9.5787    2.2845    1.3461 C   0  0  0  0  0  0  0  0  0  0  0  0
    8.4847    2.4480    0.7938 O   0  0  0  0  0  0  0  0  0  0  0  0
    9.9742    3.0638    2.6266 C   0  0  2  0  0  0  0  0  0  0  0  0
    9.9458    2.1636    3.8671 C   0  0  0  0  0  0  0  0  0  0  0  0
    8.5167    2.2953    4.3760 C   0  0  0  0  0  0  0  0  0  0  0  0
    8.1690    3.7433    4.0853 C   0  0  0  0  0  0  0  0  0  0  0  0
    8.9986    4.1163    2.9519 N   0  0  0  0  0  0  0  0  0  0  0  0
    8.7848    5.3216    2.3145 C   0  0  0  0  0  0  0  0  0  0  0  0
    7.8604    6.0626    2.6641 O   0  0  0  0  0  0  0  0  0  0  0  0
    9.7330    5.7264    1.1557 C   0  0  2  0  0  0  0  0  0  0  0  0
   11.0465    6.3167    1.6982 C   0  0  0  0  0  0  0  0  0  0  0  0
   12.0334    6.7547    0.6143 C   0  0  0  0  0  0  0  0  0  0  0  0
   12.5883    5.5919   -0.1599 C   0  0  0  0  0  0  0  0  0  0  0  0
   12.3924    4.4060    0.0505 O   0  0  0  0  0  0  0  0  0  0  0  0
   13.3898    5.9907   -1.1654 O   0  0  0  0  0  0  0  0  0  0  0  0
    8.9822    6.5661    0.2111 N   0  0  0  0  0  0  0  0  0  0  0  0
    8.7721    7.9212    0.3880 C   0  0  0  0  0  0  0  0  0  0  0  0
    9.4247    8.6338    1.1457 O   0  0  0  0  0  0  0  0  0  0  0  0
    7.6630    8.4874   -0.5122 C   0  0  0  0  0  0  0  0  0  0  0  0
    7.2201    9.8021   -0.0237 N   0  0  0  0  0  0  0  0  0  0  0  0
   -5.0277    3.6126    1.4224 H   0  0  0  0  0  0  0  0  0  0  0  0
   -3.9070    3.6018    0.0673 H   0  0  0  0  0  0  0  0  0  0  0  0
   -3.6979    4.7841    1.3709 H   0  0  0  0  0  0  0  0  0  0  0  0
   -3.3274    2.8904    2.9866 H   0  0  0  0  0  0  0  0  0  0  0  0
   -1.5821    0.7660    2.3263 H   0  0  0  0  0  0  0  0  0  0  0  0
   -1.7406   -1.4680    2.4071 H   0  0  0  0  0  0  0  0  0  0  0  0
   -3.8951   -1.8462    3.3177 H   0  0  0  0  0  0  0  0  0  0  0  0
   -4.7306   -1.2444    1.8975 H   0  0  0  0  0  0  0  0  0  0  0  0
   -4.7229   -4.1439    0.3280 H   0  0  0  0  0  0  0  0  0  0  0  0
   -3.9715   -0.7000   -0.3282 H   0  0  0  0  0  0  0  0  0  0  0  0
   -2.1836   -0.7877   -2.3419 H   0  0  0  0  0  0  0  0  0  0  0  0
   -1.7037   -3.2741   -1.4612 H   0  0  0  0  0  0  0  0  0  0  0  0
   -1.8566   -2.9658   -3.1714 H   0  0  0  0  0  0  0  0  0  0  0  0
   -4.5859   -4.8288   -3.6121 H   0  0  0  0  0  0  0  0  0  0  0  0
   -3.7664   -2.3352   -4.3384 H   0  0  0  0  0  0  0  0  0  0  0  0
   -6.2922   -0.7515   -4.3466 H   0  0  0  0  0  0  0  0  0  0  0  0
   -5.1387   -0.9152   -6.5486 H   0  0  0  0  0  0  0  0  0  0  0  0
   -6.6378   -1.8673   -6.5654 H   0  0  0  0  0  0  0  0  0  0  0  0
   -5.0717   -2.6761   -6.4145 H   0  0  0  0  0  0  0  0  0  0  0  0
   -7.1080   -1.6748   -2.4625 H   0  0  0  0  0  0  0  0  0  0  0  0
   -7.4425   -4.6279   -2.2805 H   0  0  0  0  0  0  0  0  0  0  0  0
   -7.7787   -3.4018   -1.0213 H   0  0  0  0  0  0  0  0  0  0  0  0
   -9.6845   -5.1435   -1.2245 H   0  0  0  0  0  0  0  0  0  0  0  0
  -11.8295   -3.9888   -2.9396 H   0  0  0  0  0  0  0  0  0  0  0  0
  -13.1667   -6.0379   -2.3652 H   0  0  0  0  0  0  0  0  0  0  0  0
  -11.7886   -6.7144   -1.5191 H   0  0  0  0  0  0  0  0  0  0  0  0
  -10.4977   -6.8273   -3.6573 H   0  0  0  0  0  0  0  0  0  0  0  0
  -11.7874   -8.6904   -4.6450 H   0  0  0  0  0  0  0  0  0  0  0  0
  -13.2434   -8.1772   -3.7741 H   0  0  0  0  0  0  0  0  0  0  0  0
  -11.8312   -8.7668   -2.8789 H   0  0  0  0  0  0  0  0  0  0  0  0
  -13.0860   -5.8095   -4.9471 H   0  0  0  0  0  0  0  0  0  0  0  0
  -11.7203   -6.5151   -5.8279 H   0  0  0  0  0  0  0  0  0  0  0  0
  -11.5094   -4.9971   -4.9598 H   0  0  0  0  0  0  0  0  0  0  0  0
  -13.7868   -3.5045   -1.7671 H   0  0  0  0  0  0  0  0  0  0  0  0
  -13.7544   -3.6386    1.1575 H   0  0  0  0  0  0  0  0  0  0  0  0
  -12.3907   -1.5967    0.5877 H   0  0  0  0  0  0  0  0  0  0  0  0
  -13.4699   -0.9630   -1.5649 H   0  0  0  0  0  0  0  0  0  0  0  0
  -13.4034    0.3828   -0.4244 H   0  0  0  0  0  0  0  0  0  0  0  0
  -14.9306   -0.4653   -0.6898 H   0  0  0  0  0  0  0  0  0  0  0  0
  -13.4939   -0.0460    2.0837 H   0  0  0  0  0  0  0  0  0  0  0  0
  -13.7372   -1.6881    2.6916 H   0  0  0  0  0  0  0  0  0  0  0  0
  -15.0587   -0.8351    1.8686 H   0  0  0  0  0  0  0  0  0  0  0  0
  -17.1589   -3.1675    0.8571 H   0  0  0  0  0  0  0  0  0  0  0  0
   -1.0813    2.7776    2.6032 H   0  0  0  0  0  0  0  0  0  0  0  0
    0.7873    3.6841    1.7002 H   0  0  0  0  0  0  0  0  0  0  0  0
    0.4081    4.1628   -1.2593 H   0  0  0  0  0  0  0  0  0  0  0  0
    1.4112    5.0467   -0.1145 H   0  0  0  0  0  0  0  0  0  0  0  0
    2.5550    3.3898   -1.9535 H   0  0  0  0  0  0  0  0  0  0  0  0
    3.1961    3.4928   -0.3012 H   0  0  0  0  0  0  0  0  0  0  0  0
    2.7511    1.1209   -0.5643 H   0  0  0  0  0  0  0  0  0  0  0  0
    1.2015    1.4274   -1.3629 H   0  0  0  0  0  0  0  0  0  0  0  0
    1.6339   -0.7842    0.6484 H   0  0  0  0  0  0  0  0  0  0  0  0
    0.5387   -1.5055    2.6702 H   0  0  0  0  0  0  0  0  0  0  0  0
    2.1030   -2.2659    2.4652 H   0  0  0  0  0  0  0  0  0  0  0  0
    1.7875    0.1514    4.3068 H   0  0  0  0  0  0  0  0  0  0  0  0
    3.1222   -0.9795    4.2017 H   0  0  0  0  0  0  0  0  0  0  0  0
    1.8078   -1.4211    6.1825 H   0  0  0  0  0  0  0  0  0  0  0  0
    1.7439   -2.7991    5.0950 H   0  0  0  0  0  0  0  0  0  0  0  0
   -0.5529   -2.2765    4.4315 H   0  0  0  0  0  0  0  0  0  0  0  0
   -0.4392   -2.3070    6.1778 H   0  0  0  0  0  0  0  0  0  0  0  0
   -0.4314    0.1159    4.5181 H   0  0  0  0  0  0  0  0  0  0  0  0
   -0.2506    0.1017    6.1276 H   0  0  0  0  0  0  0  0  0  0  0  0
    3.9002   -0.8447    1.0322 H   0  0  0  0  0  0  0  0  0  0  0  0
    5.9855   -0.0880    2.7357 H   0  0  0  0  0  0  0  0  0  0  0  0
    6.0419    1.6557    2.3596 H   0  0  0  0  0  0  0  0  0  0  0  0
    6.8931    1.0417    0.4206 H   0  0  0  0  0  0  0  0  0  0  0  0
    6.1914   -0.5230   -1.8730 H   0  0  0  0  0  0  0  0  0  0  0  0
    6.3345   -2.8888   -2.0292 H   0  0  0  0  0  0  0  0  0  0  0  0
    7.6338   -2.9899   -0.8356 H   0  0  0  0  0  0  0  0  0  0  0  0
    7.9068   -2.3911   -3.7256 H   0  0  0  0  0  0  0  0  0  0  0  0
    9.1590   -2.7488   -2.5297 H   0  0  0  0  0  0  0  0  0  0  0  0
    9.6930   -0.4586   -2.7920 H   0  0  0  0  0  0  0  0  0  0  0  0
    8.0679   -0.0715   -3.3974 H   0  0  0  0  0  0  0  0  0  0  0  0
    9.9731    1.4891   -1.1921 H   0  0  0  0  0  0  0  0  0  0  0  0
   11.4459   -0.9188   -1.3053 H   0  0  0  0  0  0  0  0  0  0  0  0
   12.1520    0.7011   -1.4589 H   0  0  0  0  0  0  0  0  0  0  0  0
   11.9117   -0.9904    1.0564 H   0  0  0  0  0  0  0  0  0  0  0  0
   13.3639   -0.1842    0.4315 H   0  0  0  0  0  0  0  0  0  0  0  0
   12.4707    2.0117    0.9904 H   0  0  0  0  0  0  0  0  0  0  0  0
   11.9241    1.0333    2.3657 H   0  0  0  0  0  0  0  0  0  0  0  0
   10.9602    3.5060    2.4714 H   0  0  0  0  0  0  0  0  0  0  0  0
   10.6388    2.5537    4.6225 H   0  0  0  0  0  0  0  0  0  0  0  0
   10.1948    1.1164    3.6803 H   0  0  0  0  0  0  0  0  0  0  0  0
    7.8633    1.6255    3.8082 H   0  0  0  0  0  0  0  0  0  0  0  0
    8.4163    2.0439    5.4356 H   0  0  0  0  0  0  0  0  0  0  0  0
    8.4372    4.3942    4.9250 H   0  0  0  0  0  0  0  0  0  0  0  0
    7.1073    3.8807    3.8572 H   0  0  0  0  0  0  0  0  0  0  0  0
    9.9483    4.8259    0.5760 H   0  0  0  0  0  0  0  0  0  0  0  0
   10.8364    7.1678    2.3559 H   0  0  0  0  0  0  0  0  0  0  0  0
   11.5382    5.5857    2.3500 H   0  0  0  0  0  0  0  0  0  0  0  0
   11.5663    7.4519   -0.0873 H   0  0  0  0  0  0  0  0  0  0  0  0
   12.8783    7.2626    1.0932 H   0  0  0  0  0  0  0  0  0  0  0  0
   13.7044    5.1664   -1.5892 H   0  0  0  0  0  0  0  0  0  0  0  0
    8.2157    6.0781   -0.2371 H   0  0  0  0  0  0  0  0  0  0  0  0
    6.8087    7.8038   -0.5262 H   0  0  0  0  0  0  0  0  0  0  0  0
    8.0579    8.5856   -1.5280 H   0  0  0  0  0  0  0  0  0  0  0  0
    8.0631   10.3672    0.1183 H   0  0  0  0  0  0  0  0  0  0  0  0
    6.8680    9.6736    0.9286 H   0  0  0  0  0  0  0  0  0  0  0  0
  1  2  1  0
  2  3  1  0
  3  4  2  0
  3  5  1  0
  5  6  1  0
  6  7  1  0
  7  8  1  0
  8  9  2  0
  8 10  1  0
  6 11  1  0
 11 12  2  0
 11 13  1  0
 13 14  1  0
 14 15  1  0
 15 16  1  0
 16 17  2  0
 16 18  1  0
 14 19  1  0
 19 20  2  0
 19 21  1  0
 21 22  1  0
 22 23  1  0
 22 24  1  0
 24 25  2  0
 24 26  1  0
 26 27  1  0
 27 28  1  0
 28 29  2  0
 28 30  1  0
 30 31  1  0
 31 32  1  0
 32 33  1  0
 33 34  1  0
 33 35  1  0
 31 36  1  0
 36 37  2  0
 36 38  1  0
 38 39  1  0
 39 40  1  0
 40 41  1  0
 40 42  1  0
 39 43  1  0
 43 44  2  0
 43 45  1  0
  2 46  1  0
 46 47  1  0
 47 48  2  0
 47 49  1  0
 49 50  1  0
 50 51  1  0
 51 52  1  0
 52 53  1  0
 53 54  1  0
 54 55  2  0
 54 56  1  0
 56 57  1  0
 57 58  1  0
 58 59  1  0
 59 60  1  0
 60 61  1  0
 56 62  1  0
 62 63  1  0
 63 64  2  0
 63 65  1  0
 65 66  1  0
 66 67  1  0
 67 68  2  0
 67 69  1  0
 69 70  1  0
 70 71  1  0
 71 72  1  0
 72 73  1  0
 73 74  1  0
 74 75  2  0
 74 76  1  0
 76 77  1  0
 77 78  1  0
 78 79  1  0
 79 80  1  0
 80 81  1  0
 81 82  2  0
 81 83  1  0
 83 84  1  0
 84 85  1  0
 85 86  1  0
 86 87  1  0
 87 88  1  0
 88 89  2  0
 88 90  1  0
 90 91  1  0
 91 92  1  0
 92 93  1  0
 93 94  2  0
 93 95  1  0
 90 96  1  0
 96 97  1  0
 97 98  2  0
 97 99  1  0
 99100  1  0
 53 49  1  0
 73 69  1  0
 80 76  1  0
 87 83  1  0
  1101  1  0
  1102  1  0
  1103  1  0
  2104  1  1
  5105  1  0
  6106  1  1
  7107  1  0
  7108  1  0
 10109  1  0
 13110  1  0
 14111  1  6
 15112  1  0
 15113  1  0
 18114  1  0
 21115  1  0
 22116  1  6
 23117  1  0
 23118  1  0
 23119  1  0
 26120  1  0
 27121  1  0
 27122  1  0
 30123  1  0
 31124  1  6
 32125  1  0
 32126  1  0
 33127  1  0
 34128  1  0
 34129  1  0
 34130  1  0
 35131  1  0
 35132  1  0
 35133  1  0
 38134  1  0
 39135  1  1
 40136  1  0
 41137  1  0
 41138  1  0
 41139  1  0
 42140  1  0
 42141  1  0
 42142  1  0
 45143  1  0
 46144  1  0
 49145  1  1
 50146  1  0
 50147  1  0
 51148  1  0
 51149  1  0
 52150  1  0
 52151  1  0
 56152  1  6
 57153  1  0
 57154  1  0
 58155  1  0
 58156  1  0
 59157  1  0
 59158  1  0
 60159  1  0
 60160  1  0
 61161  1  0
 61162  1  0
 62163  1  0
 65164  1  0
 65165  1  0
 66166  1  0
 69167  1  6
 70168  1  0
 70169  1  0
 71170  1  0
 71171  1  0
 72172  1  0
 72173  1  0
 76174  1  6
 77175  1  0
 77176  1  0
 78177  1  0
 78178  1  0
 79179  1  0
 79180  1  0
 83181  1  6
 84182  1  0
 84183  1  0
 85184  1  0
 85185  1  0
 86186  1  0
 86187  1  0
 90188  1  6
 91189  1  0
 91190  1  0
 92191  1  0
 92192  1  0
 95193  1  0
 96194  1  0
 99195  1  0
 99196  1  0
100197  1  0
100198  1  0
M  END
