
     RDKit          3D

490492  0  0  0  0  0  0  0  0999 V2000
    7.1932   -6.6036    0.5700 N   0  0  0  0  0  0  0  0  0  0  0  0
    6.1570   -5.5954    0.9204 C   0  0  2  0  0  0  0  0  0  0  0  0
    6.8165   -4.2005    0.9379 C   0  0  0  0  0  0  0  0  0  0  0  0
    6.8295   -3.4660    1.9207 O   0  0  0  0  0  0  0  0  0  0  0  0
    5.4747   -5.8785    2.2743 C   0  0  0  0  0  0  0  0  0  0  0  0
    4.8026   -7.2311    2.3852 C   0  0  0  0  0  0  0  0  0  0  0  0
    3.9048   -7.6815    1.4069 C   0  0  0  0  0  0  0  0  0  0  0  0
    5.0444   -8.0423    3.5047 C   0  0  0  0  0  0  0  0  0  0  0  0
    3.2825   -8.9244    1.5344 C   0  0  0  0  0  0  0  0  0  0  0  0
    4.4213   -9.2861    3.6331 C   0  0  0  0  0  0  0  0  0  0  0  0
    3.5463   -9.7174    2.6432 C   0  0  0  0  0  0  0  0  0  0  0  0
    2.9143  -10.9218    2.7286 O   0  0  0  0  0  0  0  0  0  0  0  0
    7.3985   -3.8609   -0.2663 N   0  0  0  0  0  0  0  0  0  0  0  0
    7.9614   -2.5367   -0.4996 C   0  0  1  0  0  0  0  0  0  0  0  0
    9.0612   -2.5654   -1.5805 C   0  0  0  0  0  0  0  0  0  0  0  0
    9.3815   -1.5862   -2.2492 O   0  0  0  0  0  0  0  0  0  0  0  0
    6.8707   -1.5388   -0.8629 C   0  0  0  0  0  0  0  0  0  0  0  0
    9.7536   -3.7506   -1.6663 N   0  0  0  0  0  0  0  0  0  0  0  0
   10.8972   -3.9580   -2.5615 C   0  0  2  0  0  0  0  0  0  0  0  0
   10.5165   -4.3295   -4.0177 C   0  0  0  0  0  0  0  0  0  0  0  0
   11.2170   -5.0619   -4.7132 O   0  0  0  0  0  0  0  0  0  0  0  0
   11.8802   -4.9759   -1.9786 C   0  0  0  0  0  0  0  0  0  0  0  0
   11.3669   -6.3904   -1.9575 C   0  0  0  0  0  0  0  0  0  0  0  0
   12.0573   -7.3968   -1.9717 O   0  0  0  0  0  0  0  0  0  0  0  0
   10.0330   -6.4944   -1.7977 O   0  0  0  0  0  0  0  0  0  0  0  0
    9.4165   -3.6738   -4.5176 N   0  0  0  0  0  0  0  0  0  0  0  0
    9.0465   -3.6973   -5.9371 C   0  0  2  0  0  0  0  0  0  0  0  0
    7.9544   -2.6146   -6.1046 C   0  0  0  0  0  0  0  0  0  0  0  0
    7.6960   -1.8254   -5.1927 O   0  0  0  0  0  0  0  0  0  0  0  0
    8.5608   -5.0734   -6.3829 C   0  0  0  0  0  0  0  0  0  0  0  0
    7.3227   -2.5541   -7.3284 N   0  0  0  0  0  0  0  0  0  0  0  0
    6.1308   -1.7107   -7.4845 C   0  0  2  0  0  0  0  0  0  0  0  0
    4.9649   -2.5976   -6.9806 C   0  0  0  0  0  0  0  0  0  0  0  0
    4.5871   -3.5974   -7.5895 O   0  0  0  0  0  0  0  0  0  0  0  0
    5.9217   -1.2780   -8.9544 C   0  0  1  0  0  0  0  0  0  0  0  0
    4.6406   -0.4396   -9.0799 C   0  0  0  0  0  0  0  0  0  0  0  0
    7.1501   -0.4881   -9.4628 C   0  0  0  0  0  0  0  0  0  0  0  0
    7.0655   -0.0930  -10.9310 C   0  0  0  0  0  0  0  0  0  0  0  0
    4.5034   -2.2530   -5.7323 N   0  0  0  0  0  0  0  0  0  0  0  0
    3.3497   -2.9010   -5.1028 C   0  0  2  0  0  0  0  0  0  0  0  0
    2.1114   -1.9919   -5.3375 C   0  0  0  0  0  0  0  0  0  0  0  0
    2.1120   -1.0380   -6.1193 O   0  0  0  0  0  0  0  0  0  0  0  0
    3.6414   -3.1358   -3.6095 C   0  0  0  0  0  0  0  0  0  0  0  0
    4.4095   -4.4106   -3.3362 C   0  0  0  0  0  0  0  0  0  0  0  0
    5.7956   -4.4679   -3.5119 C   0  0  0  0  0  0  0  0  0  0  0  0
    3.7332   -5.5642   -2.9136 C   0  0  0  0  0  0  0  0  0  0  0  0
    6.4912   -5.6555   -3.2754 C   0  0  0  0  0  0  0  0  0  0  0  0
    4.4301   -6.7490   -2.6735 C   0  0  0  0  0  0  0  0  0  0  0  0
    5.8094   -6.7949   -2.8558 C   0  0  0  0  0  0  0  0  0  0  0  0
    0.9678   -2.3150   -4.6446 N   0  0  0  0  0  0  0  0  0  0  0  0
   -0.2466   -1.5068   -4.7509 C   0  0  2  0  0  0  0  0  0  0  0  0
   -0.0062   -0.0753   -4.2032 C   0  0  0  0  0  0  0  0  0  0  0  0
    0.9286    0.2227   -3.4542 O   0  0  0  0  0  0  0  0  0  0  0  0
   -1.4291   -2.1783   -4.0201 C   0  0  2  0  0  0  0  0  0  0  0  0
   -0.9356   -2.9858   -2.9371 O   0  0  0  0  0  0  0  0  0  0  0  0
   -2.2100   -3.0943   -4.9565 C   0  0  0  0  0  0  0  0  0  0  0  0
   -0.8783    0.8792   -4.7109 N   0  0  0  0  0  0  0  0  0  0  0  0
   -0.6909    2.3276   -4.5648 C   0  0  2  0  0  0  0  0  0  0  0  0
    0.5234    2.7448   -5.4363 C   0  0  0  0  0  0  0  0  0  0  0  0
    0.3984    3.3097   -6.5164 O   0  0  0  0  0  0  0  0  0  0  0  0
   -0.5874    2.8746   -3.1296 C   0  0  0  0  0  0  0  0  0  0  0  0
   -1.9293    2.9970   -2.4046 C   0  0  0  0  0  0  0  0  0  0  0  0
   -2.3998    1.7231   -1.7362 C   0  0  0  0  0  0  0  0  0  0  0  0
   -1.9183    0.6134   -1.9174 O   0  0  0  0  0  0  0  0  0  0  0  0
   -3.4575    1.9091   -0.8941 N   0  0  0  0  0  0  0  0  0  0  0  0
    1.7357    2.3606   -4.9077 N   0  0  0  0  0  0  0  0  0  0  0  0
    2.9308    2.1768   -5.7474 C   0  0  2  0  0  0  0  0  0  0  0  0
    3.9005    1.3651   -4.8659 C   0  0  0  0  0  0  0  0  0  0  0  0
    4.6688    0.5170   -5.3067 O   0  0  0  0  0  0  0  0  0  0  0  0
    3.5959    3.4954   -6.1542 C   0  0  0  0  0  0  0  0  0  0  0  0
    4.6389    3.3084   -7.1095 O   0  0  0  0  0  0  0  0  0  0  0  0
    3.8846    1.7484   -3.5374 N   0  0  0  0  0  0  0  0  0  0  0  0
    4.7815    1.1942   -2.5230 C   0  0  2  0  0  0  0  0  0  0  0  0
    3.9991    1.0141   -1.2001 C   0  0  0  0  0  0  0  0  0  0  0  0
    4.5550    0.9197   -0.1099 O   0  0  0  0  0  0  0  0  0  0  0  0
    5.9939    2.1139   -2.2632 C   0  0  0  0  0  0  0  0  0  0  0  0
    6.7992    2.4546   -3.4951 C   0  0  0  0  0  0  0  0  0  0  0  0
    7.5139    1.4595   -4.1746 C   0  0  0  0  0  0  0  0  0  0  0  0
    6.8323    3.7686   -3.9855 C   0  0  0  0  0  0  0  0  0  0  0  0
    8.2113    1.7623   -5.3445 C   0  0  0  0  0  0  0  0  0  0  0  0
    7.5344    4.0728   -5.1547 C   0  0  0  0  0  0  0  0  0  0  0  0
    8.2109    3.0625   -5.8301 C   0  0  0  0  0  0  0  0  0  0  0  0
    8.8887    3.3106   -6.9863 O   0  0  0  0  0  0  0  0  0  0  0  0
    2.6198    0.9646   -1.3290 N   0  0  0  0  0  0  0  0  0  0  0  0
    1.7278    0.6337   -0.2015 C   0  0  2  0  0  0  0  0  0  0  0  0
    1.7825    1.6824    0.9405 C   0  0  0  0  0  0  0  0  0  0  0  0
    1.4321    1.4544    2.0963 O   0  0  0  0  0  0  0  0  0  0  0  0
    1.9260   -0.7903    0.3194 C   0  0  0  0  0  0  0  0  0  0  0  0
    1.4040   -1.8285   -0.6677 C   0  0  0  0  0  0  0  0  0  0  0  0
    1.4883   -3.2379   -0.0870 C   0  0  0  0  0  0  0  0  0  0  0  0
    0.8157   -4.1719   -0.9687 N   0  0  0  0  0  0  0  0  0  0  0  0
    0.5335   -5.4390   -0.6044 C   0  0  0  0  0  0  0  0  0  0  0  0
    1.0426   -6.0373    0.4127 N   0  0  0  0  0  0  0  0  0  0  0  0
   -0.3384   -6.0347   -1.4401 N   0  0  0  0  0  0  0  0  0  0  0  0
    2.1516    2.9370    0.4915 N   0  0  0  0  0  0  0  0  0  0  0  0
    2.6019    3.9705    1.4057 C   0  0  2  0  0  0  0  0  0  0  0  0
    1.4531    4.8810    1.8952 C   0  0  0  0  0  0  0  0  0  0  0  0
    0.5117    5.2438    1.1889 O   0  0  0  0  0  0  0  0  0  0  0  0
    3.7491    4.7977    0.7979 C   0  0  0  0  0  0  0  0  0  0  0  0
    3.3882    5.8185   -0.2944 C   0  0  0  0  0  0  0  0  0  0  0  0
    2.7845    5.2379   -1.5772 C   0  0  0  0  0  0  0  0  0  0  0  0
    2.5581    6.2967   -2.6600 C   0  0  0  0  0  0  0  0  0  0  0  0
    3.8183    6.8203   -3.1682 N   0  0  0  0  0  0  0  0  0  0  0  0
    1.6285    5.3654    3.1731 N   0  0  0  0  0  0  0  0  0  0  0  0
    0.5920    6.1056    3.9068 C   0  0  2  0  0  0  0  0  0  0  0  0
    0.8272    7.6279    3.7028 C   0  0  0  0  0  0  0  0  0  0  0  0
    0.7642    8.4550    4.6071 O   0  0  0  0  0  0  0  0  0  0  0  0
    0.5788    5.7044    5.4035 C   0  0  0  0  0  0  0  0  0  0  0  0
   -0.6869    6.2015    6.1131 C   0  0  0  0  0  0  0  0  0  0  0  0
    0.6630    4.1840    5.5947 C   0  0  0  0  0  0  0  0  0  0  0  0
    1.0162    8.0060    2.3874 N   0  0  0  0  0  0  0  0  0  0  0  0
    1.0908    9.4171    1.9971 C   0  0  2  0  0  0  0  0  0  0  0  0
   -0.2969    9.9617    1.5908 C   0  0  0  0  0  0  0  0  0  0  0  0
   -0.5374   11.1666    1.5421 O   0  0  0  0  0  0  0  0  0  0  0  0
    2.0676    9.6125    0.8262 C   0  0  0  0  0  0  0  0  0  0  0  0
    3.5215    9.9011    1.2570 C   0  0  0  0  0  0  0  0  0  0  0  0
    4.1129    8.8396    2.1830 C   0  0  0  0  0  0  0  0  0  0  0  0
    4.4040   10.0546    0.0150 C   0  0  0  0  0  0  0  0  0  0  0  0
   -1.1927    9.0203    1.1315 N   0  0  0  0  0  0  0  0  0  0  0  0
   -2.4735    9.4018    0.5455 C   0  0  2  0  0  0  0  0  0  0  0  0
   -3.4747    8.2370    0.6544 C   0  0  0  0  0  0  0  0  0  0  0  0
   -4.3683    8.0228   -0.1642 O   0  0  0  0  0  0  0  0  0  0  0  0
   -2.3037    9.8355   -0.9065 C   0  0  0  0  0  0  0  0  0  0  0  0
   -3.3637    7.4947    1.8108 N   0  0  0  0  0  0  0  0  0  0  0  0
   -4.3487    6.4699    2.1521 C   0  0  2  0  0  0  0  0  0  0  0  0
   -4.2407    6.2123    3.6758 C   0  0  0  0  0  0  0  0  0  0  0  0
   -3.6143    6.9759    4.4108 O   0  0  0  0  0  0  0  0  0  0  0  0
   -4.1430    5.2108    1.2921 C   0  0  0  0  0  0  0  0  0  0  0  0
   -5.4746    4.5748    0.8818 C   0  0  0  0  0  0  0  0  0  0  0  0
   -5.7856    4.7280   -0.5902 C   0  0  0  0  0  0  0  0  0  0  0  0
   -5.9068    3.7600   -1.3398 O   0  0  0  0  0  0  0  0  0  0  0  0
   -5.9728    5.9924   -1.0444 N   0  0  0  0  0  0  0  0  0  0  0  0
   -4.9679    5.1436    4.1543 N   0  0  0  0  0  0  0  0  0  0  0  0
   -4.8815    4.7492    5.5600 C   0  0  2  0  0  0  0  0  0  0  0  0
   -3.6746    3.7824    5.6974 C   0  0  0  0  0  0  0  0  0  0  0  0
   -3.0665    3.3529    4.7171 O   0  0  0  0  0  0  0  0  0  0  0  0
   -6.1754    4.0455    6.0089 C   0  0  0  0  0  0  0  0  0  0  0  0
   -7.4743    4.8811    5.9982 C   0  0  0  0  0  0  0  0  0  0  0  0
   -7.3364    6.1941    6.7672 C   0  0  0  0  0  0  0  0  0  0  0  0
   -8.0239    5.1345    4.5938 C   0  0  0  0  0  0  0  0  0  0  0  0
   -3.3372    3.4398    6.9903 N   0  0  0  0  0  0  0  0  0  0  0  0
   -2.4669    2.2900    7.2500 C   0  0  2  0  0  0  0  0  0  0  0  0
   -3.3654    1.0759    7.5900 C   0  0  0  0  0  0  0  0  0  0  0  0
   -4.5911    1.1559    7.6610 O   0  0  0  0  0  0  0  0  0  0  0  0
   -1.5271    2.5606    8.4314 C   0  0  0  0  0  0  0  0  0  0  0  0
   -0.4963    1.5706    8.5042 O   0  0  0  0  0  0  0  0  0  0  0  0
   -2.6700   -0.0876    7.8284 N   0  0  0  0  0  0  0  0  0  0  0  0
   -3.2905   -1.2672    8.4274 C   0  0  2  0  0  0  0  0  0  0  0  0
   -2.2386   -2.1148    9.1663 C   0  0  0  0  0  0  0  0  0  0  0  0
   -2.5245   -2.8109   10.1378 O   0  0  0  0  0  0  0  0  0  0  0  0
   -3.9796   -2.1298    7.3812 C   0  0  0  0  0  0  0  0  0  0  0  0
   -0.9861   -2.1269    8.5894 N   0  0  0  0  0  0  0  0  0  0  0  0
    0.0811   -2.9902    9.0924 C   0  0  2  0  0  0  0  0  0  0  0  0
    1.4368   -2.2995    8.8474 C   0  0  0  0  0  0  0  0  0  0  0  0
    2.4356   -2.8888    8.4452 O   0  0  0  0  0  0  0  0  0  0  0  0
   -0.0063   -4.4087    8.5095 C   0  0  0  0  0  0  0  0  0  0  0  0
    0.1968   -4.4991    6.9888 C   0  0  0  0  0  0  0  0  0  0  0  0
   -0.0522   -5.9199    6.4832 C   0  0  0  0  0  0  0  0  0  0  0  0
    0.7528   -6.2420    5.3192 N   0  0  0  0  0  0  0  0  0  0  0  0
    0.6196   -5.6578    4.1091 C   0  0  0  0  0  0  0  0  0  0  0  0
   -0.0248   -4.5793    3.8505 N   0  0  0  0  0  0  0  0  0  0  0  0
    1.2239   -6.3924    3.1580 N   0  0  0  0  0  0  0  0  0  0  0  0
    1.4437   -0.9556    9.1740 N   0  0  0  0  0  0  0  0  0  0  0  0
    2.4777   -0.0168    8.7240 C   0  0  2  0  0  0  0  0  0  0  0  0
    2.1647    0.3104    7.2483 C   0  0  0  0  0  0  0  0  0  0  0  0
    1.6667    1.3874    6.9168 O   0  0  0  0  0  0  0  0  0  0  0  0
    3.9249   -0.4537    8.9762 C   0  0  0  0  0  0  0  0  0  0  0  0
    4.9104    0.7021    8.7651 C   0  0  0  0  0  0  0  0  0  0  0  0
    6.3525    0.2540    9.0233 C   0  0  0  0  0  0  0  0  0  0  0  0
    7.3782    1.3559    8.7532 C   0  0  0  0  0  0  0  0  0  0  0  0
    7.2058    2.4895    9.6542 N   0  0  0  0  0  0  0  0  0  0  0  0
    2.3695   -0.7254    6.3666 N   0  0  0  0  0  0  0  0  0  0  0  0
    1.8481   -0.6807    5.0075 C   0  0  2  0  0  0  0  0  0  0  0  0
    0.3048   -0.9182    5.0396 C   0  0  0  0  0  0  0  0  0  0  0  0
   -0.3112   -1.2336    6.0617 O   0  0  0  0  0  0  0  0  0  0  0  0
    2.5211   -1.7597    4.1387 C   0  0  0  0  0  0  0  0  0  0  0  0
    4.0369   -1.6229    3.8745 C   0  0  0  0  0  0  0  0  0  0  0  0
    4.8951   -2.0718    5.0577 C   0  0  0  0  0  0  0  0  0  0  0  0
    4.4474   -0.2228    3.4239 C   0  0  0  0  0  0  0  0  0  0  0  0
   -0.3223   -0.7475    3.8257 N   0  0  0  0  0  0  0  0  0  0  0  0
   -1.7186   -1.1041    3.5727 C   0  0  2  0  0  0  0  0  0  0  0  0
   -1.7525   -1.9565    2.2817 C   0  0  0  0  0  0  0  0  0  0  0  0
   -1.0640   -1.6981    1.2975 O   0  0  0  0  0  0  0  0  0  0  0  0
   -2.5644    0.1655    3.4163 C   0  0  0  0  0  0  0  0  0  0  0  0
   -4.0341   -0.0603    3.0169 C   0  0  0  0  0  0  0  0  0  0  0  0
   -4.7164    1.2783    2.7517 C   0  0  0  0  0  0  0  0  0  0  0  0
   -4.8264   -0.8272    4.0707 C   0  0  0  0  0  0  0  0  0  0  0  0
   -2.6535   -3.0115    2.2935 N   0  0  0  0  0  0  0  0  0  0  0  0
   -2.5352   -4.0523    1.2660 C   0  0  2  0  0  0  0  0  0  0  0  0
   -3.0142   -3.6246   -0.1398 C   0  0  0  0  0  0  0  0  0  0  0  0
   -2.5583   -4.1393   -1.1663 O   0  0  0  0  0  0  0  0  0  0  0  0
   -3.3487   -5.2984    1.6552 C   0  0  0  0  0  0  0  0  0  0  0  0
   -2.6427   -6.1232    2.7271 C   0  0  0  0  0  0  0  0  0  0  0  0
   -3.3807   -7.3962    3.0625 C   0  0  0  0  0  0  0  0  0  0  0  0
   -4.4783   -7.7039    2.6180 O   0  0  0  0  0  0  0  0  0  0  0  0
   -2.7157   -8.1980    3.9442 N   0  0  0  0  0  0  0  0  0  0  0  0
   -4.1214   -2.8100   -0.1789 N   0  0  0  0  0  0  0  0  0  0  0  0
   -4.8026   -2.5146   -1.4398 C   0  0  2  0  0  0  0  0  0  0  0  0
   -5.2873   -1.0522   -1.4655 C   0  0  0  0  0  0  0  0  0  0  0  0
   -5.1859   -0.2980   -0.4983 O   0  0  0  0  0  0  0  0  0  0  0  0
   -5.9529   -3.4915   -1.6708 C   0  0  0  0  0  0  0  0  0  0  0  0
   -5.8652   -4.0398   -3.0644 C   0  0  0  0  0  0  0  0  0  0  0  0
   -5.5848   -5.1872   -3.3627 O   0  0  0  0  0  0  0  0  0  0  0  0
   -6.1177   -3.0913   -3.9920 O   0  0  0  0  0  0  0  0  0  0  0  0
   -5.7791   -0.6456   -2.6874 N   0  0  0  0  0  0  0  0  0  0  0  0
   -6.1829    0.7290   -2.9549 C   0  0  2  0  0  0  0  0  0  0  0  0
   -7.6875    0.8474   -2.6362 C   0  0  0  0  0  0  0  0  0  0  0  0
   -8.5194    0.0427   -3.0574 O   0  0  0  0  0  0  0  0  0  0  0  0
   -5.9303    1.1254   -4.4392 C   0  0  1  0  0  0  0  0  0  0  0  0
   -6.0180    2.6493   -4.6090 C   0  0  0  0  0  0  0  0  0  0  0  0
   -4.5707    0.6005   -4.9583 C   0  0  0  0  0  0  0  0  0  0  0  0
   -4.3014    0.9234   -6.4224 C   0  0  0  0  0  0  0  0  0  0  0  0
   -8.0540    1.9691   -1.9295 N   0  0  0  0  0  0  0  0  0  0  0  0
   -9.4551    2.3214   -1.6679 C   0  0  2  0  0  0  0  0  0  0  0  0
  -10.0138    3.1591   -2.8547 C   0  0  0  0  0  0  0  0  0  0  0  0
  -10.7599    4.1234   -2.7179 O   0  0  0  0  0  0  0  0  0  0  0  0
   -9.6055    3.0760   -0.3356 C   0  0  0  0  0  0  0  0  0  0  0  0
   -9.5809    2.2151    0.9456 C   0  0  0  0  0  0  0  0  0  0  0  0
   -8.3020    1.4001    1.1059 C   0  0  0  0  0  0  0  0  0  0  0  0
  -10.8061    1.3056    1.0533 C   0  0  0  0  0  0  0  0  0  0  0  0
   -9.6921    2.6538   -4.0955 N   0  0  0  0  0  0  0  0  0  0  0  0
  -10.2028    3.1989   -5.3578 C   0  0  2  0  0  0  0  0  0  0  0  0
   -9.6667    2.2566   -6.4570 C   0  0  0  0  0  0  0  0  0  0  0  0
   -9.0629    2.6167   -7.4643 O   0  0  0  0  0  0  0  0  0  0  0  0
   -9.7745    4.6467   -5.6303 C   0  0  0  0  0  0  0  0  0  0  0  0
  -10.6485    5.2427   -6.5911 O   0  0  0  0  0  0  0  0  0  0  0  0
   -9.9552    0.9216   -6.2225 N   0  0  0  0  0  0  0  0  0  0  0  0
   -9.5193   -0.1323   -7.1408 C   0  0  2  0  0  0  0  0  0  0  0  0
  -10.5238   -0.2008   -8.3097 C   0  0  0  0  0  0  0  0  0  0  0  0
  -11.3985   -1.0540   -8.4198 O   0  0  0  0  0  0  0  0  0  0  0  0
   -9.4332   -1.4594   -6.3801 C   0  0  0  0  0  0  0  0  0  0  0  0
   -8.6794   -2.5315   -7.1686 C   0  0  0  0  0  0  0  0  0  0  0  0
   -8.6757   -3.8582   -6.4125 C   0  0  0  0  0  0  0  0  0  0  0  0
   -7.8618   -4.8432   -7.1007 N   0  0  0  0  0  0  0  0  0  0  0  0
   -6.5128   -4.8604   -7.0539 C   0  0  0  0  0  0  0  0  0  0  0  0
   -5.7772   -4.1003   -6.3206 N   0  0  0  0  0  0  0  0  0  0  0  0
   -6.0051   -5.8037   -7.8692 N   0  0  0  0  0  0  0  0  0  0  0  0
  -10.4051    0.8068   -9.2263 N   0  0  0  0  0  0  0  0  0  0  0  0
    7.8710   -6.6325    1.3338 H   0  0  0  0  0  0  0  0  0  0  0  0
    6.7449   -7.5221    0.5795 H   0  0  0  0  0  0  0  0  0  0  0  0
    5.4060   -5.5802    0.1228 H   0  0  0  0  0  0  0  0  0  0  0  0
    4.7137   -5.1111    2.4708 H   0  0  0  0  0  0  0  0  0  0  0  0
    6.2174   -5.7763    3.0774 H   0  0  0  0  0  0  0  0  0  0  0  0
    3.6657   -7.0648    0.5418 H   0  0  0  0  0  0  0  0  0  0  0  0
    5.7234   -7.7094    4.2880 H   0  0  0  0  0  0  0  0  0  0  0  0
    2.5904   -9.2681    0.7711 H   0  0  0  0  0  0  0  0  0  0  0  0
    4.6292   -9.8957    4.5070 H   0  0  0  0  0  0  0  0  0  0  0  0
    3.2608  -11.4010    3.4994 H   0  0  0  0  0  0  0  0  0  0  0  0
    7.1767   -4.4582   -1.0564 H   0  0  0  0  0  0  0  0  0  0  0  0
    8.4468   -2.2074    0.4275 H   0  0  0  0  0  0  0  0  0  0  0  0
    6.3970   -1.8017   -1.8145 H   0  0  0  0  0  0  0  0  0  0  0  0
    7.2860   -0.5321   -0.9651 H   0  0  0  0  0  0  0  0  0  0  0  0
    6.0884   -1.5075   -0.0976 H   0  0  0  0  0  0  0  0  0  0  0  0
    9.3337   -4.5750   -1.2405 H   0  0  0  0  0  0  0  0  0  0  0  0
   11.4219   -2.9962   -2.6358 H   0  0  0  0  0  0  0  0  0  0  0  0
   12.7986   -4.9759   -2.5780 H   0  0  0  0  0  0  0  0  0  0  0  0
   12.1450   -4.7042   -0.9504 H   0  0  0  0  0  0  0  0  0  0  0  0
    9.8788   -7.4640   -1.7603 H   0  0  0  0  0  0  0  0  0  0  0  0
    9.1399   -2.8226   -4.0223 H   0  0  0  0  0  0  0  0  0  0  0  0
    9.9265   -3.3948   -6.5155 H   0  0  0  0  0  0  0  0  0  0  0  0
    9.2371   -5.8740   -6.0704 H   0  0  0  0  0  0  0  0  0  0  0  0
    8.4832   -5.1246   -7.4739 H   0  0  0  0  0  0  0  0  0  0  0  0
    7.5696   -5.2971   -5.9773 H   0  0  0  0  0  0  0  0  0  0  0  0
    7.3333   -3.3842   -7.9077 H   0  0  0  0  0  0  0  0  0  0  0  0
    6.2384   -0.8225   -6.8538 H   0  0  0  0  0  0  0  0  0  0  0  0
    5.8044   -2.1729   -9.5801 H   0  0  0  0  0  0  0  0  0  0  0  0
    4.7229    0.4939   -8.5129 H   0  0  0  0  0  0  0  0  0  0  0  0
    3.7664   -0.9832   -8.7082 H   0  0  0  0  0  0  0  0  0  0  0  0
    4.4297   -0.1875  -10.1234 H   0  0  0  0  0  0  0  0  0  0  0  0
    8.0546   -1.0949   -9.3382 H   0  0  0  0  0  0  0  0  0  0  0  0
    7.2914    0.4153   -8.8565 H   0  0  0  0  0  0  0  0  0  0  0  0
    6.2860    0.6544  -11.1037 H   0  0  0  0  0  0  0  0  0  0  0  0
    6.8615   -0.9638  -11.5618 H   0  0  0  0  0  0  0  0  0  0  0  0
    8.0152    0.3450  -11.2554 H   0  0  0  0  0  0  0  0  0  0  0  0
    4.6959   -1.2884   -5.4479 H   0  0  0  0  0  0  0  0  0  0  0  0
    3.1376   -3.8487   -5.6124 H   0  0  0  0  0  0  0  0  0  0  0  0
    2.7184   -3.1980   -3.0319 H   0  0  0  0  0  0  0  0  0  0  0  0
    4.1893   -2.2860   -3.1810 H   0  0  0  0  0  0  0  0  0  0  0  0
    6.3385   -3.5862   -3.8429 H   0  0  0  0  0  0  0  0  0  0  0  0
    2.6547   -5.5518   -2.7652 H   0  0  0  0  0  0  0  0  0  0  0  0
    7.5672   -5.6950   -3.4250 H   0  0  0  0  0  0  0  0  0  0  0  0
    3.8923   -7.6355   -2.3479 H   0  0  0  0  0  0  0  0  0  0  0  0
    6.3522   -7.7181   -2.6733 H   0  0  0  0  0  0  0  0  0  0  0  0
    0.9417   -3.0495   -3.9449 H   0  0  0  0  0  0  0  0  0  0  0  0
   -0.4688   -1.3914   -5.8201 H   0  0  0  0  0  0  0  0  0  0  0  0
   -2.1131   -1.4322   -3.6032 H   0  0  0  0  0  0  0  0  0  0  0  0
   -1.7232   -3.2635   -2.4157 H   0  0  0  0  0  0  0  0  0  0  0  0
   -1.5670   -3.8839   -5.3606 H   0  0  0  0  0  0  0  0  0  0  0  0
   -2.6455   -2.5330   -5.7888 H   0  0  0  0  0  0  0  0  0  0  0  0
   -3.0190   -3.5962   -4.4158 H   0  0  0  0  0  0  0  0  0  0  0  0
   -1.4032    0.6064   -5.5331 H   0  0  0  0  0  0  0  0  0  0  0  0
   -1.5670    2.7835   -5.0443 H   0  0  0  0  0  0  0  0  0  0  0  0
    0.1156    2.3016   -2.5188 H   0  0  0  0  0  0  0  0  0  0  0  0
   -0.1682    3.8883   -3.1916 H   0  0  0  0  0  0  0  0  0  0  0  0
   -1.8205    3.7510   -1.6140 H   0  0  0  0  0  0  0  0  0  0  0  0
   -2.7126    3.3472   -3.0858 H   0  0  0  0  0  0  0  0  0  0  0  0
   -3.8916    1.0593   -0.5296 H   0  0  0  0  0  0  0  0  0  0  0  0
   -4.1105    2.6678   -1.0564 H   0  0  0  0  0  0  0  0  0  0  0  0
    1.6229    1.6110   -4.2235 H   0  0  0  0  0  0  0  0  0  0  0  0
    2.6599    1.5747   -6.6209 H   0  0  0  0  0  0  0  0  0  0  0  0
    2.8665    4.1703   -6.6117 H   0  0  0  0  0  0  0  0  0  0  0  0
    4.0162    4.0206   -5.2900 H   0  0  0  0  0  0  0  0  0  0  0  0
    5.3090    2.7088   -6.7255 H   0  0  0  0  0  0  0  0  0  0  0  0
    3.2989    2.5350   -3.2839 H   0  0  0  0  0  0  0  0  0  0  0  0
    5.1115    0.2014   -2.8481 H   0  0  0  0  0  0  0  0  0  0  0  0
    6.6678    1.6578   -1.5278 H   0  0  0  0  0  0  0  0  0  0  0  0
    5.6444    3.0442   -1.7948 H   0  0  0  0  0  0  0  0  0  0  0  0
    7.5236    0.4317   -3.8141 H   0  0  0  0  0  0  0  0  0  0  0  0
    6.3110    4.5660   -3.4616 H   0  0  0  0  0  0  0  0  0  0  0  0
    8.7456    0.9767   -5.8721 H   0  0  0  0  0  0  0  0  0  0  0  0
    7.5403    5.0941   -5.5222 H   0  0  0  0  0  0  0  0  0  0  0  0
    8.7762    4.2467   -7.2182 H   0  0  0  0  0  0  0  0  0  0  0  0
    2.2637    0.6690   -2.2405 H   0  0  0  0  0  0  0  0  0  0  0  0
    0.7109    0.7277   -0.6043 H   0  0  0  0  0  0  0  0  0  0  0  0
    2.9793   -0.9917    0.5425 H   0  0  0  0  0  0  0  0  0  0  0  0
    1.3847   -0.9075    1.2601 H   0  0  0  0  0  0  0  0  0  0  0  0
    0.3637   -1.5946   -0.9246 H   0  0  0  0  0  0  0  0  0  0  0  0
    1.9721   -1.7703   -1.5994 H   0  0  0  0  0  0  0  0  0  0  0  0
    2.5376   -3.5316    0.0327 H   0  0  0  0  0  0  0  0  0  0  0  0
    1.0211   -3.2640    0.9033 H   0  0  0  0  0  0  0  0  0  0  0  0
    0.1668   -3.7391   -1.6254 H   0  0  0  0  0  0  0  0  0  0  0  0
    0.6968   -7.0025    0.4150 H   0  0  0  0  0  0  0  0  0  0  0  0
   -0.7420   -6.9034   -1.1170 H   0  0  0  0  0  0  0  0  0  0  0  0
   -1.0837   -5.4131   -1.7551 H   0  0  0  0  0  0  0  0  0  0  0  0
    2.5293    2.9323   -0.4441 H   0  0  0  0  0  0  0  0  0  0  0  0
    3.0060    3.4517    2.2857 H   0  0  0  0  0  0  0  0  0  0  0  0
    4.2284    5.3565    1.6123 H   0  0  0  0  0  0  0  0  0  0  0  0
    4.5153    4.1175    0.4038 H   0  0  0  0  0  0  0  0  0  0  0  0
    4.3082    6.3616   -0.5429 H   0  0  0  0  0  0  0  0  0  0  0  0
    2.6993    6.5615    0.1171 H   0  0  0  0  0  0  0  0  0  0  0  0
    1.8100    4.7908   -1.3554 H   0  0  0  0  0  0  0  0  0  0  0  0
    3.4299    4.4424   -1.9661 H   0  0  0  0  0  0  0  0  0  0  0  0
    1.9932    5.8571   -3.4895 H   0  0  0  0  0  0  0  0  0  0  0  0
    1.9590    7.1197   -2.2549 H   0  0  0  0  0  0  0  0  0  0  0  0
    4.2964    6.1102   -3.7202 H   0  0  0  0  0  0  0  0  0  0  0  0
    3.6280    7.5862   -3.8164 H   0  0  0  0  0  0  0  0  0  0  0  0
    2.4845    5.1513    3.6715 H   0  0  0  0  0  0  0  0  0  0  0  0
   -0.3818    5.8711    3.4572 H   0  0  0  0  0  0  0  0  0  0  0  0
    1.4487    6.1509    5.9028 H   0  0  0  0  0  0  0  0  0  0  0  0
   -1.5815    5.7665    5.6603 H   0  0  0  0  0  0  0  0  0  0  0  0
   -0.7873    7.2885    6.0743 H   0  0  0  0  0  0  0  0  0  0  0  0
   -0.6751    5.9167    7.1708 H   0  0  0  0  0  0  0  0  0  0  0  0
    1.6097    3.7792    5.2242 H   0  0  0  0  0  0  0  0  0  0  0  0
   -0.1542    3.6710    5.0769 H   0  0  0  0  0  0  0  0  0  0  0  0
    0.6067    3.9306    6.6573 H   0  0  0  0  0  0  0  0  0  0  0  0
    0.9385    7.2840    1.6771 H   0  0  0  0  0  0  0  0  0  0  0  0
    1.4034   10.0130    2.8630 H   0  0  0  0  0  0  0  0  0  0  0  0
    2.0385    8.7416    0.1605 H   0  0  0  0  0  0  0  0  0  0  0  0
    1.7379   10.4621    0.2127 H   0  0  0  0  0  0  0  0  0  0  0  0
    3.5342   10.8581    1.7947 H   0  0  0  0  0  0  0  0  0  0  0  0
    5.1673    9.0512    2.3918 H   0  0  0  0  0  0  0  0  0  0  0  0
    3.5957    8.8175    3.1465 H   0  0  0  0  0  0  0  0  0  0  0  0
    4.0536    7.8436    1.7377 H   0  0  0  0  0  0  0  0  0  0  0  0
    5.4286   10.3211    0.2953 H   0  0  0  0  0  0  0  0  0  0  0  0
    4.4416    9.1247   -0.5626 H   0  0  0  0  0  0  0  0  0  0  0  0
    4.0223   10.8455   -0.6393 H   0  0  0  0  0  0  0  0  0  0  0  0
   -0.9312    8.0419    1.1494 H   0  0  0  0  0  0  0  0  0  0  0  0
   -2.8852   10.2364    1.1258 H   0  0  0  0  0  0  0  0  0  0  0  0
   -1.6041   10.6733   -0.9929 H   0  0  0  0  0  0  0  0  0  0  0  0
   -1.9148    9.0138   -1.5187 H   0  0  0  0  0  0  0  0  0  0  0  0
   -3.2599   10.1491   -1.3385 H   0  0  0  0  0  0  0  0  0  0  0  0
   -2.8572    7.9133    2.5922 H   0  0  0  0  0  0  0  0  0  0  0  0
   -5.3363    6.9142    1.9758 H   0  0  0  0  0  0  0  0  0  0  0  0
   -3.5531    4.4755    1.8541 H   0  0  0  0  0  0  0  0  0  0  0  0
   -3.5492    5.4337    0.3967 H   0  0  0  0  0  0  0  0  0  0  0  0
   -6.3251    4.9552    1.4582 H   0  0  0  0  0  0  0  0  0  0  0  0
   -5.4275    3.4992    1.0761 H   0  0  0  0  0  0  0  0  0  0  0  0
   -6.0985    6.1150   -2.0408 H   0  0  0  0  0  0  0  0  0  0  0  0
   -5.5283    6.7934   -0.5870 H   0  0  0  0  0  0  0  0  0  0  0  0
   -5.0880    4.3629    3.5225 H   0  0  0  0  0  0  0  0  0  0  0  0
   -4.6722    5.6276    6.1799 H   0  0  0  0  0  0  0  0  0  0  0  0
   -6.3303    3.1436    5.4008 H   0  0  0  0  0  0  0  0  0  0  0  0
   -6.0424    3.6815    7.0354 H   0  0  0  0  0  0  0  0  0  0  0  0
   -8.2283    4.2767    6.5211 H   0  0  0  0  0  0  0  0  0  0  0  0
   -8.3119    6.6815    6.8718 H   0  0  0  0  0  0  0  0  0  0  0  0
   -6.6702    6.8963    6.2558 H   0  0  0  0  0  0  0  0  0  0  0  0
   -6.9426    6.0171    7.7734 H   0  0  0  0  0  0  0  0  0  0  0  0
   -8.0487    4.2105    4.0069 H   0  0  0  0  0  0  0  0  0  0  0  0
   -7.4374    5.8778    4.0468 H   0  0  0  0  0  0  0  0  0  0  0  0
   -9.0493    5.5163    4.6530 H   0  0  0  0  0  0  0  0  0  0  0  0
   -4.0340    3.6131    7.7055 H   0  0  0  0  0  0  0  0  0  0  0  0
   -1.8902    2.0353    6.3540 H   0  0  0  0  0  0  0  0  0  0  0  0
   -2.0727    2.5408    9.3813 H   0  0  0  0  0  0  0  0  0  0  0  0
   -1.0512    3.5428    8.3469 H   0  0  0  0  0  0  0  0  0  0  0  0
    0.1633    1.7968    7.8056 H   0  0  0  0  0  0  0  0  0  0  0  0
   -1.6608    0.0153    7.9361 H   0  0  0  0  0  0  0  0  0  0  0  0
   -4.0171   -0.9234    9.1729 H   0  0  0  0  0  0  0  0  0  0  0  0
   -4.3602   -3.0563    7.8245 H   0  0  0  0  0  0  0  0  0  0  0  0
   -4.8270   -1.6003    6.9377 H   0  0  0  0  0  0  0  0  0  0  0  0
   -3.2912   -2.4064    6.5751 H   0  0  0  0  0  0  0  0  0  0  0  0
   -0.8939   -1.8073    7.6184 H   0  0  0  0  0  0  0  0  0  0  0  0
   -0.0294   -3.0665   10.1820 H   0  0  0  0  0  0  0  0  0  0  0  0
    0.7484   -5.0374    8.9994 H   0  0  0  0  0  0  0  0  0  0  0  0
   -0.9847   -4.8375    8.7612 H   0  0  0  0  0  0  0  0  0  0  0  0
   -0.4922   -3.8209    6.4754 H   0  0  0  0  0  0  0  0  0  0  0  0
    1.2118   -4.1819    6.7279 H   0  0  0  0  0  0  0  0  0  0  0  0
    0.2089   -6.6425    7.2651 H   0  0  0  0  0  0  0  0  0  0  0  0
   -1.1156   -6.0676    6.2614 H   0  0  0  0  0  0  0  0  0  0  0  0
    1.0134   -7.2184    5.2672 H   0  0  0  0  0  0  0  0  0  0  0  0
    0.0835   -4.3997    2.8473 H   0  0  0  0  0  0  0  0  0  0  0  0
    2.1449   -6.7332    3.4137 H   0  0  0  0  0  0  0  0  0  0  0  0
    1.2751   -5.9851    2.2157 H   0  0  0  0  0  0  0  0  0  0  0  0
    0.5221   -0.5446    9.3060 H   0  0  0  0  0  0  0  0  0  0  0  0
    2.2900    0.8999    9.2976 H   0  0  0  0  0  0  0  0  0  0  0  0
    4.2170   -1.2776    8.3176 H   0  0  0  0  0  0  0  0  0  0  0  0
    4.0171   -0.8225   10.0055 H   0  0  0  0  0  0  0  0  0  0  0  0
    4.8277    1.0777    7.7382 H   0  0  0  0  0  0  0  0  0  0  0  0
    4.6474    1.5283    9.4358 H   0  0  0  0  0  0  0  0  0  0  0  0
    6.4505   -0.0998   10.0574 H   0  0  0  0  0  0  0  0  0  0  0  0
    6.5861   -0.5998    8.3751 H   0  0  0  0  0  0  0  0  0  0  0  0
    7.2915    1.7020    7.7176 H   0  0  0  0  0  0  0  0  0  0  0  0
    8.3875    0.9491    8.8796 H   0  0  0  0  0  0  0  0  0  0  0  0
    7.9409    3.1736    9.4785 H   0  0  0  0  0  0  0  0  0  0  0  0
    7.3299    2.1812   10.6180 H   0  0  0  0  0  0  0  0  0  0  0  0
    2.5155   -1.6476    6.7742 H   0  0  0  0  0  0  0  0  0  0  0  0
    2.0105    0.3237    4.6017 H   0  0  0  0  0  0  0  0  0  0  0  0
    2.3272   -2.7491    4.5754 H   0  0  0  0  0  0  0  0  0  0  0  0
    2.0267   -1.7836    3.1625 H   0  0  0  0  0  0  0  0  0  0  0  0
    4.2643   -2.3109    3.0484 H   0  0  0  0  0  0  0  0  0  0  0  0
    5.9426   -2.1677    4.7507 H   0  0  0  0  0  0  0  0  0  0  0  0
    4.5703   -3.0475    5.4333 H   0  0  0  0  0  0  0  0  0  0  0  0
    4.8659   -1.3547    5.8824 H   0  0  0  0  0  0  0  0  0  0  0  0
    4.3493    0.5098    4.2315 H   0  0  0  0  0  0  0  0  0  0  0  0
    3.8361    0.1115    2.5823 H   0  0  0  0  0  0  0  0  0  0  0  0
    5.4931   -0.2163    3.0974 H   0  0  0  0  0  0  0  0  0  0  0  0
    0.1946   -0.3210    3.0583 H   0  0  0  0  0  0  0  0  0  0  0  0
   -2.0818   -1.7047    4.4125 H   0  0  0  0  0  0  0  0  0  0  0  0
   -2.0940    0.8072    2.6578 H   0  0  0  0  0  0  0  0  0  0  0  0
   -2.5237    0.7306    4.3552 H   0  0  0  0  0  0  0  0  0  0  0  0
   -4.0657   -0.6219    2.0789 H   0  0  0  0  0  0  0  0  0  0  0  0
   -5.7019    1.1190    2.3080 H   0  0  0  0  0  0  0  0  0  0  0  0
   -4.1275    1.8837    2.0574 H   0  0  0  0  0  0  0  0  0  0  0  0
   -4.8580    1.8467    3.6741 H   0  0  0  0  0  0  0  0  0  0  0  0
   -4.8366   -0.2826    5.0197 H   0  0  0  0  0  0  0  0  0  0  0  0
   -5.8658   -0.9610    3.7514 H   0  0  0  0  0  0  0  0  0  0  0  0
   -4.4108   -1.8219    4.2488 H   0  0  0  0  0  0  0  0  0  0  0  0
   -2.8454   -3.3523    3.2296 H   0  0  0  0  0  0  0  0  0  0  0  0
   -1.4728   -4.3002    1.1700 H   0  0  0  0  0  0  0  0  0  0  0  0
   -3.5044   -5.9350    0.7738 H   0  0  0  0  0  0  0  0  0  0  0  0
   -4.3493   -5.0088    2.0024 H   0  0  0  0  0  0  0  0  0  0  0  0
   -2.5461   -5.5452    3.6517 H   0  0  0  0  0  0  0  0  0  0  0  0
   -1.6451   -6.4017    2.3713 H   0  0  0  0  0  0  0  0  0  0  0  0
   -3.1209   -9.1023    4.1472 H   0  0  0  0  0  0  0  0  0  0  0  0
   -1.7377   -8.0463    4.1578 H   0  0  0  0  0  0  0  0  0  0  0  0
   -4.3489   -2.2603    0.6443 H   0  0  0  0  0  0  0  0  0  0  0  0
   -4.0539   -2.5895   -2.2382 H   0  0  0  0  0  0  0  0  0  0  0  0
   -5.9011   -4.3474   -0.9866 H   0  0  0  0  0  0  0  0  0  0  0  0
   -6.9402   -3.0367   -1.5315 H   0  0  0  0  0  0  0  0  0  0  0  0
   -6.0491   -3.5607   -4.8807 H   0  0  0  0  0  0  0  0  0  0  0  0
   -6.1108   -1.3606   -3.3378 H   0  0  0  0  0  0  0  0  0  0  0  0
   -5.6185    1.3856   -2.2924 H   0  0  0  0  0  0  0  0  0  0  0  0
   -6.7175    0.6752   -5.0598 H   0  0  0  0  0  0  0  0  0  0  0  0
   -6.9451    3.0531   -4.1972 H   0  0  0  0  0  0  0  0  0  0  0  0
   -5.9989    2.9322   -5.6659 H   0  0  0  0  0  0  0  0  0  0  0  0
   -5.1828    3.1493   -4.1073 H   0  0  0  0  0  0  0  0  0  0  0  0
   -3.7587    1.0047   -4.3448 H   0  0  0  0  0  0  0  0  0  0  0  0
   -4.5313   -0.4903   -4.8601 H   0  0  0  0  0  0  0  0  0  0  0  0
   -5.1410    0.6165   -7.0540 H   0  0  0  0  0  0  0  0  0  0  0  0
   -4.1215    1.9919   -6.5720 H   0  0  0  0  0  0  0  0  0  0  0  0
   -3.4092    0.3903   -6.7662 H   0  0  0  0  0  0  0  0  0  0  0  0
   -7.3416    2.6804   -1.7491 H   0  0  0  0  0  0  0  0  0  0  0  0
  -10.0534    1.4037   -1.6521 H   0  0  0  0  0  0  0  0  0  0  0  0
   -8.8193    3.8392   -0.2615 H   0  0  0  0  0  0  0  0  0  0  0  0
  -10.5535    3.6293   -0.3281 H   0  0  0  0  0  0  0  0  0  0  0  0
   -9.6260    2.9162    1.7902 H   0  0  0  0  0  0  0  0  0  0  0  0
   -8.2470    0.9723    2.1130 H   0  0  0  0  0  0  0  0  0  0  0  0
   -7.4207    2.0312    0.9621 H   0  0  0  0  0  0  0  0  0  0  0  0
   -8.2539    0.5679    0.3970 H   0  0  0  0  0  0  0  0  0  0  0  0
  -11.7310    1.8816    0.9445 H   0  0  0  0  0  0  0  0  0  0  0  0
  -10.8008    0.5202    0.2913 H   0  0  0  0  0  0  0  0  0  0  0  0
  -10.8338    0.8151    2.0325 H   0  0  0  0  0  0  0  0  0  0  0  0
   -9.3585    1.6917   -4.1089 H   0  0  0  0  0  0  0  0  0  0  0  0
  -11.2966    3.1202   -5.3445 H   0  0  0  0  0  0  0  0  0  0  0  0
   -9.8297    5.2609   -4.7275 H   0  0  0  0  0  0  0  0  0  0  0  0
   -8.7475    4.7051   -6.0069 H   0  0  0  0  0  0  0  0  0  0  0  0
  -10.3490    6.1604   -6.7138 H   0  0  0  0  0  0  0  0  0  0  0  0
  -10.7465    0.7138   -5.6220 H   0  0  0  0  0  0  0  0  0  0  0  0
   -8.5335    0.1371   -7.5394 H   0  0  0  0  0  0  0  0  0  0  0  0
   -8.9098   -1.2986   -5.4289 H   0  0  0  0  0  0  0  0  0  0  0  0
  -10.4375   -1.8193   -6.1222 H   0  0  0  0  0  0  0  0  0  0  0  0
   -9.1355   -2.6788   -8.1548 H   0  0  0  0  0  0  0  0  0  0  0  0
   -7.6522   -2.1908   -7.3467 H   0  0  0  0  0  0  0  0  0  0  0  0
   -9.6998   -4.2434   -6.3469 H   0  0  0  0  0  0  0  0  0  0  0  0
   -8.3280   -3.7266   -5.3829 H   0  0  0  0  0  0  0  0  0  0  0  0
   -8.2455   -5.1165   -7.9989 H   0  0  0  0  0  0  0  0  0  0  0  0
   -4.8006   -4.3430   -6.5300 H   0  0  0  0  0  0  0  0  0  0  0  0
   -5.0450   -6.0673   -7.6857 H   0  0  0  0  0  0  0  0  0  0  0  0
   -6.5872   -6.6336   -7.9149 H   0  0  0  0  0  0  0  0  0  0  0  0
  -11.1251    0.8864   -9.9313 H   0  0  0  0  0  0  0  0  0  0  0  0
   -9.8889    1.6515   -8.9795 H   0  0  0  0  0  0  0  0  0  0  0  0
  1  2  1  0
  2  3  1  0
  3  4  2  0
  2  5  1  0
  5  6  1  0
  6  7  1  0
  7  9  2  0
  9 11  1  0
 11 10  2  0
 10  8  1  0
  8  6  2  0
 11 12  1  0
 13 14  1  0
 14 15  1  0
 15 16  2  0
 14 17  1  0
  3 13  1  0
 18 19  1  0
 19 20  1  0
 20 21  2  0
 19 22  1  0
 22 23  1  0
 23 24  2  0
 23 25  1  0
 15 18  1  0
 26 27  1  0
 27 28  1  0
 28 29  2  0
 27 30  1  0
 20 26  1  0
 31 32  1  0
 32 33  1  0
 33 34  2  0
 32 35  1  0
 35 36  1  0
 35 37  1  0
 37 38  1  0
 28 31  1  0
 39 40  1  0
 40 41  1  0
 41 42  2  0
 40 43  1  0
 43 44  1  0
 44 45  2  0
 45 47  1  0
 47 49  2  0
 49 48  1  0
 48 46  2  0
 46 44  1  0
 33 39  1  0
 50 51  1  0
 51 52  1  0
 52 53  2  0
 51 54  1  0
 54 55  1  0
 54 56  1  0
 41 50  1  0
 57 58  1  0
 58 59  1  0
 59 60  2  0
 58 61  1  0
 61 62  1  0
 62 63  1  0
 63 64  2  0
 63 65  1  0
 52 57  1  0
 66 67  1  0
 67 68  1  0
 68 69  2  0
 67 70  1  0
 70 71  1  0
 59 66  1  0
 72 73  1  0
 73 74  1  0
 74 75  2  0
 73 76  1  0
 76 77  1  0
 77 78  1  0
 78 80  2  0
 80 82  1  0
 82 81  2  0
 81 79  1  0
 79 77  2  0
 82 83  1  0
 68 72  1  0
 84 85  1  0
 85 86  1  0
 86 87  2  0
 85 88  1  0
 88 89  1  0
 89 90  1  0
 90 91  1  0
 91 92  1  0
 92 93  2  3
 92 94  1  0
 74 84  1  0
 95 96  1  0
 96 97  1  0
 97 98  2  0
 96 99  1  0
 99100  1  0
100101  1  0
101102  1  0
102103  1  0
 86 95  1  0
104105  1  0
105106  1  0
106107  2  0
105108  1  0
108109  1  0
108110  1  0
 97104  1  0
111112  1  0
112113  1  0
113114  2  0
112115  1  0
115116  1  0
116117  1  0
116118  1  0
106111  1  0
119120  1  0
120121  1  0
121122  2  0
120123  1  0
113119  1  0
124125  1  0
125126  1  0
126127  2  0
125128  1  0
128129  1  0
129130  1  0
130131  2  0
130132  1  0
121124  1  0
133134  1  0
134135  1  0
135136  2  0
134137  1  0
137138  1  0
138139  1  0
138140  1  0
126133  1  0
141142  1  0
142143  1  0
143144  2  0
142145  1  0
145146  1  0
135141  1  0
147148  1  0
148149  1  0
149150  2  0
148151  1  0
143147  1  0
152153  1  0
153154  1  0
154155  2  0
153156  1  0
156157  1  0
157158  1  0
158159  1  0
159160  1  0
160161  2  3
160162  1  0
149152  1  0
163164  1  0
164165  1  0
165166  2  0
164167  1  0
167168  1  0
168169  1  0
169170  1  0
170171  1  0
154163  1  0
172173  1  0
173174  1  0
174175  2  0
173176  1  0
176177  1  0
177178  1  0
177179  1  0
165172  1  0
180181  1  0
181182  1  0
182183  2  0
181184  1  0
184185  1  0
185186  1  0
185187  1  0
174180  1  0
188189  1  0
189190  1  0
190191  2  0
189192  1  0
192193  1  0
193194  1  0
194195  2  0
194196  1  0
182188  1  0
197198  1  0
198199  1  0
199200  2  0
198201  1  0
201202  1  0
202203  2  0
202204  1  0
190197  1  0
205206  1  0
206207  1  0
207208  2  0
206209  1  0
209210  1  0
209211  1  0
211212  1  0
199205  1  0
213214  1  0
214215  1  0
215216  2  0
214217  1  0
217218  1  0
218219  1  0
218220  1  0
207213  1  0
221222  1  0
222223  1  0
223224  2  0
222225  1  0
225226  1  0
215221  1  0
227228  1  0
228229  1  0
229230  2  0
228231  1  0
231232  1  0
232233  1  0
233234  1  0
234235  1  0
235236  2  3
235237  1  0
223227  1  0
229238  1  0
  1239  1  0
  1240  1  0
  2241  1  6
  5242  1  0
  5243  1  0
  7244  1  0
  8245  1  0
  9246  1  0
 10247  1  0
 12248  1  0
 13249  1  0
 14250  1  1
 17251  1  0
 17252  1  0
 17253  1  0
 18254  1  0
 19255  1  6
 22256  1  0
 22257  1  0
 25258  1  0
 26259  1  0
 27260  1  6
 30261  1  0
 30262  1  0
 30263  1  0
 31264  1  0
 32265  1  1
 35266  1  6
 36267  1  0
 36268  1  0
 36269  1  0
 37270  1  0
 37271  1  0
 38272  1  0
 38273  1  0
 38274  1  0
 39275  1  0
 40276  1  6
 43277  1  0
 43278  1  0
 45279  1  0
 46280  1  0
 47281  1  0
 48282  1  0
 49283  1  0
 50284  1  0
 51285  1  6
 54286  1  1
 55287  1  0
 56288  1  0
 56289  1  0
 56290  1  0
 57291  1  0
 58292  1  6
 61293  1  0
 61294  1  0
 62295  1  0
 62296  1  0
 65297  1  0
 65298  1  0
 66299  1  0
 67300  1  6
 70301  1  0
 70302  1  0
 71303  1  0
 72304  1  0
 73305  1  6
 76306  1  0
 76307  1  0
 78308  1  0
 79309  1  0
 80310  1  0
 81311  1  0
 83312  1  0
 84313  1  0
 85314  1  6
 88315  1  0
 88316  1  0
 89317  1  0
 89318  1  0
 90319  1  0
 90320  1  0
 91321  1  0
 93322  1  0
 94323  1  0
 94324  1  0
 95325  1  0
 96326  1  1
 99327  1  0
 99328  1  0
100329  1  0
100330  1  0
101331  1  0
101332  1  0
102333  1  0
102334  1  0
103335  1  0
103336  1  0
104337  1  0
105338  1  6
108339  1  0
109340  1  0
109341  1  0
109342  1  0
110343  1  0
110344  1  0
110345  1  0
111346  1  0
112347  1  1
115348  1  0
115349  1  0
116350  1  0
117351  1  0
117352  1  0
117353  1  0
118354  1  0
118355  1  0
118356  1  0
119357  1  0
120358  1  1
123359  1  0
123360  1  0
123361  1  0
124362  1  0
125363  1  1
128364  1  0
128365  1  0
129366  1  0
129367  1  0
132368  1  0
132369  1  0
133370  1  0
134371  1  1
137372  1  0
137373  1  0
138374  1  0
139375  1  0
139376  1  0
139377  1  0
140378  1  0
140379  1  0
140380  1  0
141381  1  0
142382  1  6
145383  1  0
145384  1  0
146385  1  0
147386  1  0
148387  1  1
151388  1  0
151389  1  0
151390  1  0
152391  1  0
153392  1  1
156393  1  0
156394  1  0
157395  1  0
157396  1  0
158397  1  0
158398  1  0
159399  1  0
161400  1  0
162401  1  0
162402  1  0
163403  1  0
164404  1  1
167405  1  0
167406  1  0
168407  1  0
168408  1  0
169409  1  0
169410  1  0
170411  1  0
170412  1  0
171413  1  0
171414  1  0
172415  1  0
173416  1  6
176417  1  0
176418  1  0
177419  1  0
178420  1  0
178421  1  0
178422  1  0
179423  1  0
179424  1  0
179425  1  0
180426  1  0
181427  1  1
184428  1  0
184429  1  0
185430  1  0
186431  1  0
186432  1  0
186433  1  0
187434  1  0
187435  1  0
187436  1  0
188437  1  0
189438  1  6
192439  1  0
192440  1  0
193441  1  0
193442  1  0
196443  1  0
196444  1  0
197445  1  0
198446  1  6
201447  1  0
201448  1  0
204449  1  0
205450  1  0
206451  1  1
209452  1  6
210453  1  0
210454  1  0
210455  1  0
211456  1  0
211457  1  0
212458  1  0
212459  1  0
212460  1  0
213461  1  0
214462  1  1
217463  1  0
217464  1  0
218465  1  0
219466  1  0
219467  1  0
219468  1  0
220469  1  0
220470  1  0
220471  1  0
221472  1  0
222473  1  1
225474  1  0
225475  1  0
226476  1  0
227477  1  0
228478  1  6
231479  1  0
231480  1  0
232481  1  0
232482  1  0
233483  1  0
233484  1  0
234485  1  0
236486  1  0
237487  1  0
237488  1  0
238489  1  0
238490  1  0
M  END
