
     RDKit          3D

108109  0  0  0  0  0  0  0  0999 V2000
   -7.5307   -4.4595    1.0939 C   0  0  0  0  0  0  0  0  0  0  0  0
   -7.2453   -2.9683    0.9668 C   0  0  1  0  0  0  0  0  0  0  0  0
   -6.3263   -2.6748   -0.2385 C   0  0  0  0  0  0  0  0  0  0  0  0
   -5.5321   -3.4879   -0.7023 O   0  0  0  0  0  0  0  0  0  0  0  0
   -6.3954   -1.3651   -0.6825 N   0  0  0  0  0  0  0  0  0  0  0  0
   -5.3898   -0.8521   -1.5950 C   0  0  0  0  0  0  0  0  0  0  0  0
   -4.2508   -0.2190   -0.7928 C   0  0  0  0  0  0  0  0  0  0  0  0
   -4.4195    0.2624    0.3267 O   0  0  0  0  0  0  0  0  0  0  0  0
   -3.0465   -0.1726   -1.4498 N   0  0  0  0  0  0  0  0  0  0  0  0
   -1.8582    0.3284   -0.7898 C   0  0  0  0  0  0  0  0  0  0  0  0
   -0.6730    0.3010   -1.7541 C   0  0  0  0  0  0  0  0  0  0  0  0
   -0.7365   -0.2109   -2.8705 O   0  0  0  0  0  0  0  0  0  0  0  0
    0.4696    0.8956   -1.2579 N   0  0  0  0  0  0  0  0  0  0  0  0
    1.7443    0.7300   -1.9567 C   0  0  1  0  0  0  0  0  0  0  0  0
    2.6461    1.9446   -1.7641 C   0  0  0  0  0  0  0  0  0  0  0  0
    3.3853    1.8893   -0.4592 C   0  0  0  0  0  0  0  0  0  0  0  0
    4.5187    1.4614   -0.3013 O   0  0  0  0  0  0  0  0  0  0  0  0
    2.6452    2.3207    0.5771 O   0  0  0  0  0  0  0  0  0  0  0  0
    2.4220   -0.5579   -1.4384 C   0  0  0  0  0  0  0  0  0  0  0  0
    2.0854   -1.1019   -0.3885 O   0  0  0  0  0  0  0  0  0  0  0  0
    3.4918   -0.9790   -2.1918 N   0  0  0  0  0  0  0  0  0  0  0  0
    4.2853   -2.1583   -1.8379 C   0  0  1  0  0  0  0  0  0  0  0  0
    3.8391   -3.3672   -2.6459 C   0  0  0  0  0  0  0  0  0  0  0  0
    5.7685   -1.8160   -2.0719 C   0  0  0  0  0  0  0  0  0  0  0  0
    6.5639   -2.5592   -2.6371 O   0  0  0  0  0  0  0  0  0  0  0  0
    6.1512   -0.6118   -1.5100 N   0  0  0  0  0  0  0  0  0  0  0  0
    7.3738    0.0525   -1.9667 C   0  0  1  0  0  0  0  0  0  0  0  0
    7.1681    0.7062   -3.3408 C   0  0  0  0  0  0  0  0  0  0  0  0
    6.0439    1.5988   -3.3238 O   0  0  0  0  0  0  0  0  0  0  0  0
    7.7952    1.0940   -0.9201 C   0  0  0  0  0  0  0  0  0  0  0  0
    8.2279    2.2070   -1.2056 O   0  0  0  0  0  0  0  0  0  0  0  0
    7.7591    0.6164    0.3804 N   0  0  0  0  0  0  0  0  0  0  0  0
    7.9447    1.5358    1.4956 C   0  0  0  0  0  0  0  0  0  0  0  0
    9.4142    1.8929    1.7546 C   0  0  0  0  0  0  0  0  0  0  0  0
    9.7458    2.8293    2.4766 O   0  0  0  0  0  0  0  0  0  0  0  0
   10.3181    1.0046    1.2166 N   0  0  0  0  0  0  0  0  0  0  0  0
   11.7442    1.3073    1.1286 C   0  0  1  0  0  0  0  0  0  0  0  0
   12.5621    0.4234    2.0686 C   0  0  0  0  0  0  0  0  0  0  0  0
   12.2955    0.7379    3.5412 C   0  0  0  0  0  0  0  0  0  0  0  0
   13.1648   -0.0943    4.4425 C   0  0  0  0  0  0  0  0  0  0  0  0
   13.9739   -0.9439    4.1117 O   0  0  0  0  0  0  0  0  0  0  0  0
   12.9622    0.1900    5.7434 O   0  0  0  0  0  0  0  0  0  0  0  0
   12.1608    1.0606   -0.3220 C   0  0  0  0  0  0  0  0  0  0  0  0
   11.5340    0.4113   -1.1486 O   0  0  0  0  0  0  0  0  0  0  0  0
   13.3433    1.6218   -0.6408 O   0  0  0  0  0  0  0  0  0  0  0  0
   -8.4867   -2.2027    0.8402 N   0  0  0  0  0  0  0  0  0  0  0  0
   -9.2344   -1.8431    1.9429 C   0  0  0  0  0  0  0  0  0  0  0  0
   -8.8772   -2.1138    3.0874 O   0  0  0  0  0  0  0  0  0  0  0  0
  -10.5798   -1.1515    1.6081 C   0  0  2  0  0  0  0  0  0  0  0  0
  -10.3598    0.1451    0.8072 C   0  0  0  0  0  0  0  0  0  0  0  0
  -11.5829    0.5780    0.0521 C   0  0  0  0  0  0  0  0  0  0  0  0
  -11.9211    0.2112   -1.2370 C   0  0  0  0  0  0  0  0  0  0  0  0
  -13.1062    0.8172   -1.5593 N   0  0  0  0  0  0  0  0  0  0  0  0
  -13.5559    1.5757   -0.5047 C   0  0  0  0  0  0  0  0  0  0  0  0
  -14.7105    2.3587   -0.3846 C   0  0  0  0  0  0  0  0  0  0  0  0
  -14.9129    3.0342    0.8224 C   0  0  0  0  0  0  0  0  0  0  0  0
  -13.9957    2.9298    1.8649 C   0  0  0  0  0  0  0  0  0  0  0  0
  -12.8464    2.1433    1.7270 C   0  0  0  0  0  0  0  0  0  0  0  0
  -12.6183    1.4499    0.5204 C   0  0  0  0  0  0  0  0  0  0  0  0
  -11.3253   -0.8766    2.8553 N   0  0  0  0  0  0  0  0  0  0  0  0
   -6.6034   -5.0287    1.2180 H   0  0  0  0  0  0  0  0  0  0  0  0
   -8.1735   -4.6680    1.9554 H   0  0  0  0  0  0  0  0  0  0  0  0
   -8.0382   -4.8400    0.2002 H   0  0  0  0  0  0  0  0  0  0  0  0
   -6.7160   -2.6251    1.8641 H   0  0  0  0  0  0  0  0  0  0  0  0
   -6.7484   -0.7009    0.0012 H   0  0  0  0  0  0  0  0  0  0  0  0
   -5.8573   -0.0716   -2.2022 H   0  0  0  0  0  0  0  0  0  0  0  0
   -5.0131   -1.6477   -2.2442 H   0  0  0  0  0  0  0  0  0  0  0  0
   -2.8994   -0.7254   -2.2901 H   0  0  0  0  0  0  0  0  0  0  0  0
   -1.6407   -0.3115    0.0713 H   0  0  0  0  0  0  0  0  0  0  0  0
   -2.0446    1.3522   -0.4505 H   0  0  0  0  0  0  0  0  0  0  0  0
    0.5306    0.9709   -0.2461 H   0  0  0  0  0  0  0  0  0  0  0  0
    1.5383    0.6032   -3.0261 H   0  0  0  0  0  0  0  0  0  0  0  0
    3.4040    1.9786   -2.5556 H   0  0  0  0  0  0  0  0  0  0  0  0
    2.0907    2.8870   -1.8309 H   0  0  0  0  0  0  0  0  0  0  0  0
    3.2166    2.2251    1.3691 H   0  0  0  0  0  0  0  0  0  0  0  0
    3.6793   -0.5464   -3.0913 H   0  0  0  0  0  0  0  0  0  0  0  0
    4.1651   -2.3740   -0.7698 H   0  0  0  0  0  0  0  0  0  0  0  0
    2.7808   -3.5866   -2.4690 H   0  0  0  0  0  0  0  0  0  0  0  0
    4.4218   -4.2547   -2.3778 H   0  0  0  0  0  0  0  0  0  0  0  0
    3.9685   -3.1953   -3.7205 H   0  0  0  0  0  0  0  0  0  0  0  0
    5.3964    0.0151   -1.2255 H   0  0  0  0  0  0  0  0  0  0  0  0
    8.1791   -0.6884   -2.0365 H   0  0  0  0  0  0  0  0  0  0  0  0
    6.9566   -0.0560   -4.0976 H   0  0  0  0  0  0  0  0  0  0  0  0
    8.0520    1.2651   -3.6660 H   0  0  0  0  0  0  0  0  0  0  0  0
    6.3555    2.3989   -2.8540 H   0  0  0  0  0  0  0  0  0  0  0  0
    7.1350   -0.1729    0.5200 H   0  0  0  0  0  0  0  0  0  0  0  0
    7.3864    2.4559    1.2959 H   0  0  0  0  0  0  0  0  0  0  0  0
    7.5494    1.0498    2.3925 H   0  0  0  0  0  0  0  0  0  0  0  0
    9.9444    0.3747    0.5103 H   0  0  0  0  0  0  0  0  0  0  0  0
   11.9016    2.3705    1.3436 H   0  0  0  0  0  0  0  0  0  0  0  0
   12.3466   -0.6358    1.8731 H   0  0  0  0  0  0  0  0  0  0  0  0
   13.6319    0.5566    1.8604 H   0  0  0  0  0  0  0  0  0  0  0  0
   12.5082    1.7939    3.7402 H   0  0  0  0  0  0  0  0  0  0  0  0
   11.2511    0.5264    3.7931 H   0  0  0  0  0  0  0  0  0  0  0  0
   13.5781   -0.4057    6.2190 H   0  0  0  0  0  0  0  0  0  0  0  0
   13.4787    1.3909   -1.5840 H   0  0  0  0  0  0  0  0  0  0  0  0
   -8.9057   -2.1538   -0.0805 H   0  0  0  0  0  0  0  0  0  0  0  0
  -11.1570   -1.8788    1.0222 H   0  0  0  0  0  0  0  0  0  0  0  0
   -9.5446    0.0253    0.0827 H   0  0  0  0  0  0  0  0  0  0  0  0
  -10.0266    0.9512    1.4746 H   0  0  0  0  0  0  0  0  0  0  0  0
  -11.4200   -0.4241   -1.9548 H   0  0  0  0  0  0  0  0  0  0  0  0
  -13.5869    0.7281   -2.4436 H   0  0  0  0  0  0  0  0  0  0  0  0
  -15.4266    2.4441   -1.1952 H   0  0  0  0  0  0  0  0  0  0  0  0
  -15.7997    3.6512    0.9482 H   0  0  0  0  0  0  0  0  0  0  0  0
  -14.1703    3.4631    2.7961 H   0  0  0  0  0  0  0  0  0  0  0  0
  -12.1377    2.0671    2.5476 H   0  0  0  0  0  0  0  0  0  0  0  0
  -11.2578   -1.6941    3.4637 H   0  0  0  0  0  0  0  0  0  0  0  0
  -12.3100   -0.7379    2.6322 H   0  0  0  0  0  0  0  0  0  0  0  0
  1  2  1  0
  2  3  1  0
  3  4  2  0
  3  5  1  0
  5  6  1  0
  6  7  1  0
  7  8  2  0
  7  9  1  0
  9 10  1  0
 10 11  1  0
 11 12  2  0
 11 13  1  0
 13 14  1  0
 14 15  1  0
 15 16  1  0
 16 17  2  0
 16 18  1  0
 14 19  1  0
 19 20  2  0
 19 21  1  0
 21 22  1  0
 22 23  1  0
 22 24  1  0
 24 25  2  0
 24 26  1  0
 26 27  1  0
 27 28  1  0
 28 29  1  0
 27 30  1  0
 30 31  2  0
 30 32  1  0
 32 33  1  0
 33 34  1  0
 34 35  2  0
 34 36  1  0
 36 37  1  0
 37 38  1  0
 38 39  1  0
 39 40  1  0
 40 41  2  0
 40 42  1  0
 37 43  1  0
 43 44  2  0
 43 45  1  0
  2 46  1  0
 46 47  1  0
 47 48  2  0
 47 49  1  0
 49 50  1  0
 50 51  1  0
 51 52  2  0
 52 53  1  0
 53 54  1  0
 54 55  2  0
 55 56  1  0
 56 57  2  0
 57 58  1  0
 58 59  2  0
 49 60  1  0
 59 51  1  0
 59 54  1  0
  1 61  1  0
  1 62  1  0
  1 63  1  0
  2 64  1  1
  5 65  1  0
  6 66  1  0
  6 67  1  0
  9 68  1  0
 10 69  1  0
 10 70  1  0
 13 71  1  0
 14 72  1  6
 15 73  1  0
 15 74  1  0
 18 75  1  0
 21 76  1  0
 22 77  1  1
 23 78  1  0
 23 79  1  0
 23 80  1  0
 26 81  1  0
 27 82  1  6
 28 83  1  0
 28 84  1  0
 29 85  1  0
 32 86  1  0
 33 87  1  0
 33 88  1  0
 36 89  1  0
 37 90  1  1
 38 91  1  0
 38 92  1  0
 39 93  1  0
 39 94  1  0
 42 95  1  0
 45 96  1  0
 46 97  1  0
 49 98  1  6
 50 99  1  0
 50100  1  0
 52101  1  0
 53102  1  0
 55103  1  0
 56104  1  0
 57105  1  0
 58106  1  0
 60107  1  0
 60108  1  0
M  END
