
     RDKit          3D

101104  0  0  0  0  0  0  0  0999 V2000
   -4.0464   -5.9532   -0.3011 C   0  0  0  0  0  0  0  0  0  0  0  0
   -4.2273   -4.5191    0.2021 C   0  0  0  0  0  0  0  0  0  0  0  0
   -5.1661   -4.4799    1.4083 C   0  0  0  0  0  0  0  0  0  0  0  0
   -2.8350   -3.9388    0.5766 C   0  0  0  0  0  0  0  0  0  0  0  0
   -2.3841   -3.9193    1.7168 O   0  0  0  0  0  0  0  0  0  0  0  0
   -2.1383   -3.4862   -0.5328 N   0  0  0  0  0  0  0  0  0  0  0  0
   -1.0241   -2.5461   -0.3724 C   0  0  1  0  0  0  0  0  0  0  0  0
   -0.0917   -2.5795   -1.5961 C   0  0  0  0  0  0  0  0  0  0  0  0
    0.7717   -3.7952   -1.6584 C   0  0  0  0  0  0  0  0  0  0  0  0
    2.0969   -3.9603   -1.9997 C   0  0  0  0  0  0  0  0  0  0  0  0
    2.4630   -5.2776   -1.9214 N   0  0  0  0  0  0  0  0  0  0  0  0
    1.3830   -5.9162   -1.5346 C   0  0  0  0  0  0  0  0  0  0  0  0
    0.3304   -5.0638   -1.3692 N   0  0  0  0  0  0  0  0  0  0  0  0
   -1.6130   -1.1225   -0.2228 C   0  0  0  0  0  0  0  0  0  0  0  0
   -2.7989   -0.8720   -0.4320 O   0  0  0  0  0  0  0  0  0  0  0  0
   -0.6862   -0.1498    0.1057 N   0  0  0  0  0  0  0  0  0  0  0  0
   -1.0881    1.2508    0.3371 C   0  0  2  0  0  0  0  0  0  0  0  0
   -1.7411    1.9056   -0.8998 C   0  0  0  0  0  0  0  0  0  0  0  0
   -2.0912    3.3620   -0.6993 C   0  0  0  0  0  0  0  0  0  0  0  0
   -1.3404    4.3684   -1.3251 C   0  0  0  0  0  0  0  0  0  0  0  0
   -1.6417    5.7271   -1.1323 C   0  0  0  0  0  0  0  0  0  0  0  0
   -0.8913    6.7395   -1.7528 C   0  0  0  0  0  0  0  0  0  0  0  0
   -1.2025    8.0849   -1.5495 C   0  0  0  0  0  0  0  0  0  0  0  0
   -2.2668    8.4355   -0.7243 C   0  0  0  0  0  0  0  0  0  0  0  0
   -3.0225    7.4415   -0.1007 C   0  0  0  0  0  0  0  0  0  0  0  0
   -2.7223    6.0835   -0.2950 C   0  0  0  0  0  0  0  0  0  0  0  0
   -3.4725    5.0723    0.3242 C   0  0  0  0  0  0  0  0  0  0  0  0
   -3.1611    3.7257    0.1241 C   0  0  0  0  0  0  0  0  0  0  0  0
    0.1930    2.0191    0.7182 C   0  0  0  0  0  0  0  0  0  0  0  0
    0.3397    2.6035    1.7884 O   0  0  0  0  0  0  0  0  0  0  0  0
    1.1931    1.9711   -0.2269 N   0  0  0  0  0  0  0  0  0  0  0  0
    2.4686    2.6984   -0.1064 C   0  0  2  0  0  0  0  0  0  0  0  0
    3.0686    3.0095   -1.4946 C   0  0  0  0  0  0  0  0  0  0  0  0
    3.1365    1.8102   -2.4214 C   0  0  0  0  0  0  0  0  0  0  0  0
    2.1140    1.5778   -3.3550 C   0  0  0  0  0  0  0  0  0  0  0  0
    2.1408    0.4450   -4.1696 C   0  0  0  0  0  0  0  0  0  0  0  0
    3.1922   -0.4628   -4.0666 C   0  0  0  0  0  0  0  0  0  0  0  0
    4.2212   -0.2344   -3.1553 C   0  0  0  0  0  0  0  0  0  0  0  0
    4.1960    0.8974   -2.3388 C   0  0  0  0  0  0  0  0  0  0  0  0
    3.4935    1.9834    0.8131 C   0  0  0  0  0  0  0  0  0  0  0  0
    4.7093    2.0679    0.6732 O   0  0  0  0  0  0  0  0  0  0  0  0
    2.9225    1.3131    1.8743 N   0  0  0  0  0  0  0  0  0  0  0  0
    3.7221    0.7490    2.9680 C   0  0  1  0  0  0  0  0  0  0  0  0
    2.7937    0.2830    4.1098 C   0  0  0  0  0  0  0  0  0  0  0  0
    1.6522   -0.6194    3.6218 C   0  0  0  0  0  0  0  0  0  0  0  0
    0.8126   -1.1880    4.7681 C   0  0  0  0  0  0  0  0  0  0  0  0
   -0.4760   -1.8446    4.2620 C   0  0  0  0  0  0  0  0  0  0  0  0
   -0.1972   -2.8492    3.2446 N   0  0  0  0  0  0  0  0  0  0  0  0
    4.6351   -0.4322    2.5587 C   0  0  0  0  0  0  0  0  0  0  0  0
    5.5227   -0.8722    3.2860 O   0  0  0  0  0  0  0  0  0  0  0  0
    4.3261   -1.0751    1.3919 N   0  0  0  0  0  0  0  0  0  0  0  0
   -4.7884   -3.7016   -0.9068 N   0  0  0  0  0  0  0  0  0  0  0  0
   -3.3873   -5.9962   -1.1764 H   0  0  0  0  0  0  0  0  0  0  0  0
   -3.5911   -6.5828    0.4723 H   0  0  0  0  0  0  0  0  0  0  0  0
   -5.0051   -6.4050   -0.5803 H   0  0  0  0  0  0  0  0  0  0  0  0
   -4.7804   -5.0948    2.2296 H   0  0  0  0  0  0  0  0  0  0  0  0
   -6.1639   -4.8546    1.1533 H   0  0  0  0  0  0  0  0  0  0  0  0
   -5.2765   -3.4591    1.7926 H   0  0  0  0  0  0  0  0  0  0  0  0
   -2.7891   -3.2771   -1.2937 H   0  0  0  0  0  0  0  0  0  0  0  0
   -0.4760   -2.7900    0.5422 H   0  0  0  0  0  0  0  0  0  0  0  0
    0.5665   -1.7012   -1.5944 H   0  0  0  0  0  0  0  0  0  0  0  0
   -0.6805   -2.5168   -2.5208 H   0  0  0  0  0  0  0  0  0  0  0  0
    2.8075   -3.2006   -2.2990 H   0  0  0  0  0  0  0  0  0  0  0  0
    1.3034   -6.9806   -1.3593 H   0  0  0  0  0  0  0  0  0  0  0  0
   -0.6017   -5.3158   -1.0648 H   0  0  0  0  0  0  0  0  0  0  0  0
    0.0851   -0.4891    0.6771 H   0  0  0  0  0  0  0  0  0  0  0  0
   -1.7698    1.2606    1.1956 H   0  0  0  0  0  0  0  0  0  0  0  0
   -1.0848    1.8009   -1.7742 H   0  0  0  0  0  0  0  0  0  0  0  0
   -2.6646    1.3865   -1.1788 H   0  0  0  0  0  0  0  0  0  0  0  0
   -0.5072    4.0946   -1.9689 H   0  0  0  0  0  0  0  0  0  0  0  0
   -0.0560    6.4871   -2.4017 H   0  0  0  0  0  0  0  0  0  0  0  0
   -0.6135    8.8584   -2.0355 H   0  0  0  0  0  0  0  0  0  0  0  0
   -2.5100    9.4826   -0.5644 H   0  0  0  0  0  0  0  0  0  0  0  0
   -3.8502    7.7350    0.5410 H   0  0  0  0  0  0  0  0  0  0  0  0
   -4.3088    5.3275    0.9712 H   0  0  0  0  0  0  0  0  0  0  0  0
   -3.7636    2.9649    0.6164 H   0  0  0  0  0  0  0  0  0  0  0  0
    1.1452    1.2168   -0.9039 H   0  0  0  0  0  0  0  0  0  0  0  0
    2.2555    3.6529    0.3934 H   0  0  0  0  0  0  0  0  0  0  0  0
    4.0689    3.4506   -1.4018 H   0  0  0  0  0  0  0  0  0  0  0  0
    2.4519    3.7803   -1.9766 H   0  0  0  0  0  0  0  0  0  0  0  0
    1.2880    2.2791   -3.4551 H   0  0  0  0  0  0  0  0  0  0  0  0
    1.3473    0.2748   -4.8932 H   0  0  0  0  0  0  0  0  0  0  0  0
    3.2193   -1.3413   -4.7071 H   0  0  0  0  0  0  0  0  0  0  0  0
    5.0519   -0.9333   -3.0875 H   0  0  0  0  0  0  0  0  0  0  0  0
    5.0196    1.0635   -1.6458 H   0  0  0  0  0  0  0  0  0  0  0  0
    2.0449    1.7411    2.1690 H   0  0  0  0  0  0  0  0  0  0  0  0
    4.3842    1.5453    3.3297 H   0  0  0  0  0  0  0  0  0  0  0  0
    3.3769   -0.2408    4.8770 H   0  0  0  0  0  0  0  0  0  0  0  0
    2.3551    1.1663    4.5916 H   0  0  0  0  0  0  0  0  0  0  0  0
    0.9925   -0.0504    2.9576 H   0  0  0  0  0  0  0  0  0  0  0  0
    2.0647   -1.4472    3.0348 H   0  0  0  0  0  0  0  0  0  0  0  0
    0.5432   -0.3865    5.4663 H   0  0  0  0  0  0  0  0  0  0  0  0
    1.4092   -1.9169    5.3303 H   0  0  0  0  0  0  0  0  0  0  0  0
   -1.1319   -1.0798    3.8314 H   0  0  0  0  0  0  0  0  0  0  0  0
   -1.0122   -2.3030    5.0996 H   0  0  0  0  0  0  0  0  0  0  0  0
   -1.0833   -3.2606    2.9138 H   0  0  0  0  0  0  0  0  0  0  0  0
    0.3110   -3.6272    3.6656 H   0  0  0  0  0  0  0  0  0  0  0  0
    3.8777   -0.5402    0.6626 H   0  0  0  0  0  0  0  0  0  0  0  0
    4.9930   -1.7776    1.0989 H   0  0  0  0  0  0  0  0  0  0  0  0
   -4.9055   -2.7387   -0.5717 H   0  0  0  0  0  0  0  0  0  0  0  0
   -5.7338   -4.0279   -1.1129 H   0  0  0  0  0  0  0  0  0  0  0  0
  1  2  1  0
  2  3  1  0
  2  4  1  0
  4  5  2  0
  4  6  1  0
  6  7  1  0
  7  8  1  0
  8  9  1  0
  9 10  2  0
 10 11  1  0
 11 12  2  0
 12 13  1  0
  7 14  1  0
 14 15  2  0
 14 16  1  0
 16 17  1  0
 17 18  1  0
 18 19  1  0
 19 20  2  0
 20 21  1  0
 21 22  2  0
 22 23  1  0
 23 24  2  0
 24 25  1  0
 25 26  2  0
 26 27  1  0
 27 28  2  0
 17 29  1  0
 29 30  2  0
 29 31  1  0
 31 32  1  0
 32 33  1  0
 33 34  1  0
 34 35  2  0
 35 36  1  0
 36 37  2  0
 37 38  1  0
 38 39  2  0
 32 40  1  0
 40 41  2  0
 40 42  1  0
 42 43  1  0
 43 44  1  0
 44 45  1  0
 45 46  1  0
 46 47  1  0
 47 48  1  0
 43 49  1  0
 49 50  2  0
 49 51  1  0
  2 52  1  0
 13  9  1  0
 28 19  1  0
 26 21  1  0
 39 34  1  0
  1 53  1  0
  1 54  1  0
  1 55  1  0
  3 56  1  0
  3 57  1  0
  3 58  1  0
  6 59  1  0
  7 60  1  1
  8 61  1  0
  8 62  1  0
 10 63  1  0
 12 64  1  0
 13 65  1  0
 16 66  1  0
 17 67  1  1
 18 68  1  0
 18 69  1  0
 20 70  1  0
 22 71  1  0
 23 72  1  0
 24 73  1  0
 25 74  1  0
 27 75  1  0
 28 76  1  0
 31 77  1  0
 32 78  1  1
 33 79  1  0
 33 80  1  0
 35 81  1  0
 36 82  1  0
 37 83  1  0
 38 84  1  0
 39 85  1  0
 42 86  1  0
 43 87  1  1
 44 88  1  0
 44 89  1  0
 45 90  1  0
 45 91  1  0
 46 92  1  0
 46 93  1  0
 47 94  1  0
 47 95  1  0
 48 96  1  0
 48 97  1  0
 51 98  1  0
 51 99  1  0
 52100  1  0
 52101  1  0
M  END
