
     RDKit          3D

177181  0  0  0  0  0  0  0  0999 V2000
   -7.4960   -3.9781    4.2594 C   0  0  0  0  0  0  0  0  0  0  0  0
   -6.6298   -2.7334    4.4564 C   0  0  0  0  0  0  0  0  0  0  0  0
   -6.8100   -2.2017    5.8813 C   0  0  0  0  0  0  0  0  0  0  0  0
   -5.1334   -3.0021    4.1878 C   0  0  0  0  0  0  0  0  0  0  0  0
   -4.8121   -3.4367    2.7489 C   0  0  1  0  0  0  0  0  0  0  0  0
   -5.2050   -2.3972    1.6748 C   0  0  0  0  0  0  0  0  0  0  0  0
   -5.9115   -2.6872    0.7111 O   0  0  0  0  0  0  0  0  0  0  0  0
   -4.6596   -1.1421    1.8510 N   0  0  0  0  0  0  0  0  0  0  0  0
   -4.7275   -0.1498    0.7916 C   0  0  1  0  0  0  0  0  0  0  0  0
   -4.5740    1.2689    1.3546 C   0  0  0  0  0  0  0  0  0  0  0  0
   -5.7514    1.6669    2.2482 C   0  0  0  0  0  0  0  0  0  0  0  0
   -5.5988    3.0968    2.7655 C   0  0  0  0  0  0  0  0  0  0  0  0
   -6.7618    3.4068    3.5895 N   0  0  0  0  0  0  0  0  0  0  0  0
   -6.8784    4.5922    4.0529 C   0  0  0  0  0  0  0  0  0  0  0  0
   -6.0674    5.6638    3.9157 N   0  0  0  0  0  0  0  0  0  0  0  0
   -7.9534    4.9194    4.8013 N   0  0  0  0  0  0  0  0  0  0  0  0
   -3.6044   -0.4241   -0.2393 C   0  0  0  0  0  0  0  0  0  0  0  0
   -2.5911   -1.0821    0.0033 O   0  0  0  0  0  0  0  0  0  0  0  0
   -3.7939    0.1968   -1.4542 N   0  0  0  0  0  0  0  0  0  0  0  0
   -2.8716    0.0360   -2.5805 C   0  0  1  0  0  0  0  0  0  0  0  0
   -3.6035   -0.0033   -3.9354 C   0  0  0  0  0  0  0  0  0  0  0  0
   -4.5508    1.1553   -4.1650 C   0  0  0  0  0  0  0  0  0  0  0  0
   -4.0753    2.3949   -4.6113 C   0  0  0  0  0  0  0  0  0  0  0  0
   -4.9517    3.4669   -4.7864 C   0  0  0  0  0  0  0  0  0  0  0  0
   -6.3106    3.3102   -4.5213 C   0  0  0  0  0  0  0  0  0  0  0  0
   -6.7966    2.0796   -4.0855 C   0  0  0  0  0  0  0  0  0  0  0  0
   -5.9225    1.0064   -3.9097 C   0  0  0  0  0  0  0  0  0  0  0  0
   -1.7049    1.0535   -2.5813 C   0  0  0  0  0  0  0  0  0  0  0  0
   -1.0208    1.3117   -3.5736 O   0  0  0  0  0  0  0  0  0  0  0  0
   -1.3435    1.5530   -1.3615 N   0  0  0  0  0  0  0  0  0  0  0  0
   -3.4143   -3.8268    2.5441 N   0  0  0  0  0  0  0  0  0  0  0  0
   -2.3376   -2.9959    2.7632 C   0  0  0  0  0  0  0  0  0  0  0  0
   -2.4256   -1.9001    3.3143 O   0  0  0  0  0  0  0  0  0  0  0  0
   -1.0181   -3.5236    2.2097 C   0  0  0  0  0  0  0  0  0  0  0  0
   -1.0844   -3.5823    0.7626 N   0  0  0  0  0  0  0  0  0  0  0  0
   -1.4808   -4.7163    0.0882 C   0  0  0  0  0  0  0  0  0  0  0  0
   -1.8975   -5.7049    0.6909 O   0  0  0  0  0  0  0  0  0  0  0  0
   -1.5361   -4.5616   -1.4466 C   0  0  2  0  0  0  0  0  0  0  0  0
   -1.4191   -5.9116   -2.1803 C   0  0  0  0  0  0  0  0  0  0  0  0
   -0.0017   -6.4091   -2.3791 C   0  0  0  0  0  0  0  0  0  0  0  0
    0.6053   -6.3225   -3.6418 C   0  0  0  0  0  0  0  0  0  0  0  0
    1.9099   -6.7785   -3.8356 C   0  0  0  0  0  0  0  0  0  0  0  0
    2.6213   -7.3256   -2.7700 C   0  0  0  0  0  0  0  0  0  0  0  0
    2.0291   -7.4150   -1.5114 C   0  0  0  0  0  0  0  0  0  0  0  0
    0.7234   -6.9609   -1.3160 C   0  0  0  0  0  0  0  0  0  0  0  0
   -0.5724   -3.5647   -1.9137 N   0  0  0  0  0  0  0  0  0  0  0  0
   -0.6920   -2.9583   -3.1437 C   0  0  0  0  0  0  0  0  0  0  0  0
   -1.6781   -3.1144   -3.8598 O   0  0  0  0  0  0  0  0  0  0  0  0
    0.4131   -1.9379   -3.4492 C   0  0  2  0  0  0  0  0  0  0  0  0
    0.3342   -1.4235   -4.8935 C   0  0  0  0  0  0  0  0  0  0  0  0
    0.9689   -0.1474   -5.0193 O   0  0  0  0  0  0  0  0  0  0  0  0
    1.7331   -2.4893   -3.1340 N   0  0  0  0  0  0  0  0  0  0  0  0
    2.6710   -1.7516   -2.4570 C   0  0  0  0  0  0  0  0  0  0  0  0
    2.4498   -0.6193   -2.0212 O   0  0  0  0  0  0  0  0  0  0  0  0
    4.0398   -2.4357   -2.2399 C   0  0  2  0  0  0  0  0  0  0  0  0
    3.9354   -3.7143   -1.4202 C   0  0  0  0  0  0  0  0  0  0  0  0
    3.0214   -3.5202   -0.2369 C   0  0  0  0  0  0  0  0  0  0  0  0
    1.8197   -3.7623   -0.2783 O   0  0  0  0  0  0  0  0  0  0  0  0
    3.6066   -3.0017    0.8785 N   0  0  0  0  0  0  0  0  0  0  0  0
    4.8752   -1.4330   -1.5824 N   0  0  0  0  0  0  0  0  0  0  0  0
    6.2378   -1.3579   -1.7593 C   0  0  0  0  0  0  0  0  0  0  0  0
    6.8901   -2.2941   -2.2140 O   0  0  0  0  0  0  0  0  0  0  0  0
    6.8722   -0.0204   -1.2936 C   0  0  2  0  0  0  0  0  0  0  0  0
    7.9241   -0.2810   -0.2065 C   0  0  0  0  0  0  0  0  0  0  0  0
    7.3727   -0.8670    1.0638 C   0  0  0  0  0  0  0  0  0  0  0  0
    7.1856   -2.2111    1.3261 C   0  0  0  0  0  0  0  0  0  0  0  0
    6.6931   -2.3415    2.5956 N   0  0  0  0  0  0  0  0  0  0  0  0
    6.5357   -1.1024    3.1705 C   0  0  0  0  0  0  0  0  0  0  0  0
    6.0650   -0.7538    4.4419 C   0  0  0  0  0  0  0  0  0  0  0  0
    6.0590    0.6018    4.7812 C   0  0  0  0  0  0  0  0  0  0  0  0
    6.5078    1.5673    3.8841 C   0  0  0  0  0  0  0  0  0  0  0  0
    6.9627    1.2032    2.6114 C   0  0  0  0  0  0  0  0  0  0  0  0
    6.9763   -0.1578    2.2426 C   0  0  0  0  0  0  0  0  0  0  0  0
    5.8551    0.9602   -0.8778 N   0  0  0  0  0  0  0  0  0  0  0  0
    5.1713    1.7311   -1.8035 C   0  0  0  0  0  0  0  0  0  0  0  0
    5.4260    1.6683   -3.0034 O   0  0  0  0  0  0  0  0  0  0  0  0
    3.9069    2.4173   -1.2338 C   0  0  2  0  0  0  0  0  0  0  0  0
    3.2849    3.4208   -2.2092 C   0  0  0  0  0  0  0  0  0  0  0  0
    1.8067    3.1299   -2.3120 C   0  0  0  0  0  0  0  0  0  0  0  0
    1.0785    3.0051   -1.3285 O   0  0  0  0  0  0  0  0  0  0  0  0
    1.3064    3.0284   -3.5742 N   0  0  0  0  0  0  0  0  0  0  0  0
    4.0540    2.9146    0.1390 N   0  0  0  0  0  0  0  0  0  0  0  0
    4.8932    3.9720    0.4204 C   0  0  0  0  0  0  0  0  0  0  0  0
    5.7161    4.3892   -0.3923 O   0  0  0  0  0  0  0  0  0  0  0  0
    4.7945    4.5243    1.8628 C   0  0  2  0  0  0  0  0  0  0  0  0
    3.4350    5.1708    2.1907 C   0  0  0  0  0  0  0  0  0  0  0  0
    3.0063    6.3147    1.3012 C   0  0  0  0  0  0  0  0  0  0  0  0
    2.0561    6.1117    0.2909 C   0  0  0  0  0  0  0  0  0  0  0  0
    1.6637    7.1653   -0.5360 C   0  0  0  0  0  0  0  0  0  0  0  0
    2.2130    8.4271   -0.3513 C   0  0  0  0  0  0  0  0  0  0  0  0
    3.1455    8.6561    0.6541 C   0  0  0  0  0  0  0  0  0  0  0  0
    3.5367    7.6007    1.4815 C   0  0  0  0  0  0  0  0  0  0  0  0
    1.8027    9.4274   -1.1817 O   0  0  0  0  0  0  0  0  0  0  0  0
    5.9389    5.4303    2.1247 N   0  0  0  0  0  0  0  0  0  0  0  0
   -7.1361   -4.8130    4.8700 H   0  0  0  0  0  0  0  0  0  0  0  0
   -8.5351   -3.7768    4.5421 H   0  0  0  0  0  0  0  0  0  0  0  0
   -7.5045   -4.2975    3.2132 H   0  0  0  0  0  0  0  0  0  0  0  0
   -6.9844   -1.9563    3.7682 H   0  0  0  0  0  0  0  0  0  0  0  0
   -7.8615   -1.9686    6.0801 H   0  0  0  0  0  0  0  0  0  0  0  0
   -6.4788   -2.9352    6.6243 H   0  0  0  0  0  0  0  0  0  0  0  0
   -6.2329   -1.2829    6.0299 H   0  0  0  0  0  0  0  0  0  0  0  0
   -4.5781   -2.0934    4.4454 H   0  0  0  0  0  0  0  0  0  0  0  0
   -4.7753   -3.7776    4.8783 H   0  0  0  0  0  0  0  0  0  0  0  0
   -5.3788   -4.3473    2.5235 H   0  0  0  0  0  0  0  0  0  0  0  0
   -3.8401   -1.1069    2.4605 H   0  0  0  0  0  0  0  0  0  0  0  0
   -5.6895   -0.2495    0.2736 H   0  0  0  0  0  0  0  0  0  0  0  0
   -3.6387    1.3438    1.9249 H   0  0  0  0  0  0  0  0  0  0  0  0
   -4.4928    1.9905    0.5323 H   0  0  0  0  0  0  0  0  0  0  0  0
   -6.6889    1.5795    1.6847 H   0  0  0  0  0  0  0  0  0  0  0  0
   -5.8310    0.9802    3.1001 H   0  0  0  0  0  0  0  0  0  0  0  0
   -5.5309    3.7868    1.9157 H   0  0  0  0  0  0  0  0  0  0  0  0
   -4.6796    3.1746    3.3581 H   0  0  0  0  0  0  0  0  0  0  0  0
   -5.1355    5.4405    3.5911 H   0  0  0  0  0  0  0  0  0  0  0  0
   -6.0287    6.2209    4.7617 H   0  0  0  0  0  0  0  0  0  0  0  0
   -8.3815    5.7845    4.4952 H   0  0  0  0  0  0  0  0  0  0  0  0
   -8.6297    4.1619    4.7695 H   0  0  0  0  0  0  0  0  0  0  0  0
   -4.5207    0.8981   -1.5462 H   0  0  0  0  0  0  0  0  0  0  0  0
   -2.3826   -0.9341   -2.4493 H   0  0  0  0  0  0  0  0  0  0  0  0
   -2.8877   -0.0464   -4.7658 H   0  0  0  0  0  0  0  0  0  0  0  0
   -4.1779   -0.9376   -3.9963 H   0  0  0  0  0  0  0  0  0  0  0  0
   -3.0195    2.5374   -4.8336 H   0  0  0  0  0  0  0  0  0  0  0  0
   -4.5729    4.4246   -5.1349 H   0  0  0  0  0  0  0  0  0  0  0  0
   -6.9917    4.1455   -4.6624 H   0  0  0  0  0  0  0  0  0  0  0  0
   -7.8583    1.9540   -3.8878 H   0  0  0  0  0  0  0  0  0  0  0  0
   -6.3205    0.0505   -3.5732 H   0  0  0  0  0  0  0  0  0  0  0  0
   -0.4758    2.0924   -1.3193 H   0  0  0  0  0  0  0  0  0  0  0  0
   -1.5472    1.0053   -0.5341 H   0  0  0  0  0  0  0  0  0  0  0  0
   -3.2447   -4.6248    1.9322 H   0  0  0  0  0  0  0  0  0  0  0  0
   -0.2130   -2.8344    2.4802 H   0  0  0  0  0  0  0  0  0  0  0  0
   -0.8057   -4.5097    2.6339 H   0  0  0  0  0  0  0  0  0  0  0  0
   -1.1556   -2.6999    0.2559 H   0  0  0  0  0  0  0  0  0  0  0  0
   -2.5384   -4.1598   -1.6503 H   0  0  0  0  0  0  0  0  0  0  0  0
   -1.9978   -6.6905   -1.6682 H   0  0  0  0  0  0  0  0  0  0  0  0
   -1.8888   -5.8113   -3.1681 H   0  0  0  0  0  0  0  0  0  0  0  0
    0.0553   -5.9109   -4.4863 H   0  0  0  0  0  0  0  0  0  0  0  0
    2.3646   -6.7231   -4.8214 H   0  0  0  0  0  0  0  0  0  0  0  0
    3.6332   -7.6924   -2.9213 H   0  0  0  0  0  0  0  0  0  0  0  0
    2.5793   -7.8476   -0.6798 H   0  0  0  0  0  0  0  0  0  0  0  0
    0.2751   -7.0501   -0.3283 H   0  0  0  0  0  0  0  0  0  0  0  0
    0.3306   -3.5383   -1.4303 H   0  0  0  0  0  0  0  0  0  0  0  0
    0.2305   -1.0963   -2.7711 H   0  0  0  0  0  0  0  0  0  0  0  0
   -0.6989   -1.2992   -5.2325 H   0  0  0  0  0  0  0  0  0  0  0  0
    0.8291   -2.1149   -5.5837 H   0  0  0  0  0  0  0  0  0  0  0  0
    0.4171    0.4838   -4.5094 H   0  0  0  0  0  0  0  0  0  0  0  0
    1.9637   -3.4078   -3.4959 H   0  0  0  0  0  0  0  0  0  0  0  0
    4.4769   -2.6487   -3.2224 H   0  0  0  0  0  0  0  0  0  0  0  0
    4.9180   -4.0544   -1.0737 H   0  0  0  0  0  0  0  0  0  0  0  0
    3.5156   -4.5227   -2.0276 H   0  0  0  0  0  0  0  0  0  0  0  0
    4.4730   -2.4803    0.7930 H   0  0  0  0  0  0  0  0  0  0  0  0
    2.9849   -2.7309    1.6298 H   0  0  0  0  0  0  0  0  0  0  0  0
    4.4080   -0.5479   -1.4115 H   0  0  0  0  0  0  0  0  0  0  0  0
    7.3794    0.3907   -2.1757 H   0  0  0  0  0  0  0  0  0  0  0  0
    8.6941   -0.9596   -0.5966 H   0  0  0  0  0  0  0  0  0  0  0  0
    8.4379    0.6598    0.0284 H   0  0  0  0  0  0  0  0  0  0  0  0
    7.3819   -3.0864    0.7180 H   0  0  0  0  0  0  0  0  0  0  0  0
    6.4909   -3.2188    3.0565 H   0  0  0  0  0  0  0  0  0  0  0  0
    5.7348   -1.5049    5.1525 H   0  0  0  0  0  0  0  0  0  0  0  0
    5.7150    0.9047    5.7680 H   0  0  0  0  0  0  0  0  0  0  0  0
    6.5172    2.6146    4.1794 H   0  0  0  0  0  0  0  0  0  0  0  0
    7.3226    1.9660    1.9263 H   0  0  0  0  0  0  0  0  0  0  0  0
    5.5294    0.9610    0.0826 H   0  0  0  0  0  0  0  0  0  0  0  0
    3.2159    1.5741   -1.1084 H   0  0  0  0  0  0  0  0  0  0  0  0
    3.7294    3.3592   -3.2076 H   0  0  0  0  0  0  0  0  0  0  0  0
    3.3978    4.4571   -1.8763 H   0  0  0  0  0  0  0  0  0  0  0  0
    0.3496    2.6856   -3.6539 H   0  0  0  0  0  0  0  0  0  0  0  0
    1.9125    2.7829   -4.3491 H   0  0  0  0  0  0  0  0  0  0  0  0
    3.2374    2.8016    0.7279 H   0  0  0  0  0  0  0  0  0  0  0  0
    4.9194    3.6674    2.5335 H   0  0  0  0  0  0  0  0  0  0  0  0
    2.6546    4.3988    2.1692 H   0  0  0  0  0  0  0  0  0  0  0  0
    3.4439    5.5276    3.2300 H   0  0  0  0  0  0  0  0  0  0  0  0
    1.6048    5.1344    0.1381 H   0  0  0  0  0  0  0  0  0  0  0  0
    0.9305    7.0000   -1.3205 H   0  0  0  0  0  0  0  0  0  0  0  0
    3.5742    9.6405    0.8119 H   0  0  0  0  0  0  0  0  0  0  0  0
    4.2588    7.7889    2.2742 H   0  0  0  0  0  0  0  0  0  0  0  0
    2.2927   10.2349   -0.9566 H   0  0  0  0  0  0  0  0  0  0  0  0
    6.7932    4.9307    1.8639 H   0  0  0  0  0  0  0  0  0  0  0  0
    5.8955    6.1700    1.4154 H   0  0  0  0  0  0  0  0  0  0  0  0
  1  2  1  0
  2  3  1  0
  2  4  1  0
  4  5  1  0
  5  6  1  0
  6  7  2  0
  6  8  1  0
  8  9  1  0
  9 10  1  0
 10 11  1  0
 11 12  1  0
 12 13  1  0
 13 14  2  3
 14 15  1  0
 14 16  1  0
  9 17  1  0
 17 18  2  0
 17 19  1  0
 19 20  1  0
 20 21  1  0
 21 22  1  0
 22 23  2  0
 23 24  1  0
 24 25  2  0
 25 26  1  0
 26 27  2  0
 20 28  1  0
 28 29  2  0
 28 30  1  0
  5 31  1  0
 31 32  1  0
 32 33  2  0
 32 34  1  0
 34 35  1  0
 35 36  1  0
 36 37  2  0
 36 38  1  0
 38 39  1  0
 39 40  1  0
 40 41  2  0
 41 42  1  0
 42 43  2  0
 43 44  1  0
 44 45  2  0
 38 46  1  0
 46 47  1  0
 47 48  2  0
 47 49  1  0
 49 50  1  0
 50 51  1  0
 49 52  1  0
 52 53  1  0
 53 54  2  0
 53 55  1  0
 55 56  1  0
 56 57  1  0
 57 58  2  0
 57 59  1  0
 55 60  1  0
 60 61  1  0
 61 62  2  0
 61 63  1  0
 63 64  1  0
 64 65  1  0
 65 66  2  0
 66 67  1  0
 67 68  1  0
 68 69  2  0
 69 70  1  0
 70 71  2  0
 71 72  1  0
 72 73  2  0
 63 74  1  0
 74 75  1  0
 75 76  2  0
 75 77  1  0
 77 78  1  0
 78 79  1  0
 79 80  2  0
 79 81  1  0
 77 82  1  0
 82 83  1  0
 83 84  2  0
 83 85  1  0
 85 86  1  0
 86 87  1  0
 87 88  1  0
 88 89  2  0
 89 90  1  0
 90 91  2  0
 91 92  1  0
 90 93  1  0
 85 94  1  0
 27 22  1  0
 45 40  1  0
 73 65  1  0
 73 68  1  0
 92 87  2  0
  1 95  1  0
  1 96  1  0
  1 97  1  0
  2 98  1  0
  3 99  1  0
  3100  1  0
  3101  1  0
  4102  1  0
  4103  1  0
  5104  1  6
  8105  1  0
  9106  1  6
 10107  1  0
 10108  1  0
 11109  1  0
 11110  1  0
 12111  1  0
 12112  1  0
 15113  1  0
 15114  1  0
 16115  1  0
 16116  1  0
 19117  1  0
 20118  1  1
 21119  1  0
 21120  1  0
 23121  1  0
 24122  1  0
 25123  1  0
 26124  1  0
 27125  1  0
 30126  1  0
 30127  1  0
 31128  1  0
 34129  1  0
 34130  1  0
 35131  1  0
 38132  1  1
 39133  1  0
 39134  1  0
 41135  1  0
 42136  1  0
 43137  1  0
 44138  1  0
 45139  1  0
 46140  1  0
 49141  1  1
 50142  1  0
 50143  1  0
 51144  1  0
 52145  1  0
 55146  1  6
 56147  1  0
 56148  1  0
 59149  1  0
 59150  1  0
 60151  1  0
 63152  1  6
 64153  1  0
 64154  1  0
 66155  1  0
 67156  1  0
 69157  1  0
 70158  1  0
 71159  1  0
 72160  1  0
 74161  1  0
 77162  1  1
 78163  1  0
 78164  1  0
 81165  1  0
 81166  1  0
 82167  1  0
 85168  1  1
 86169  1  0
 86170  1  0
 88171  1  0
 89172  1  0
 91173  1  0
 92174  1  0
 93175  1  0
 94176  1  0
 94177  1  0
M  END
