
     RDKit          3D

305310  0  0  0  0  0  0  0  0999 V2000
    4.7538  -11.0538   -2.1140 C   0  0  0  0  0  0  0  0  0  0  0  0
    5.1715  -10.3265   -3.3828 C   0  0  0  0  0  0  0  0  0  0  0  0
    4.9271   -8.7974   -3.4113 C   0  0  2  0  0  0  0  0  0  0  0  0
    5.8336   -8.0859   -2.3990 C   0  0  0  0  0  0  0  0  0  0  0  0
    3.4282   -8.4321   -3.2844 C   0  0  1  0  0  0  0  0  0  0  0  0
    2.9446   -8.0649   -1.8547 C   0  0  0  0  0  0  0  0  0  0  0  0
    2.5854   -8.9113   -1.0405 O   0  0  0  0  0  0  0  0  0  0  0  0
    2.9650   -6.7122   -1.5593 N   0  0  0  0  0  0  0  0  0  0  0  0
    1.9204   -6.1706   -0.6871 C   0  0  1  0  0  0  0  0  0  0  0  0
    2.3523   -4.8227   -0.0800 C   0  0  0  0  0  0  0  0  0  0  0  0
    2.5540   -4.9122    1.4158 C   0  0  0  0  0  0  0  0  0  0  0  0
    3.8098   -5.2498    1.9371 C   0  0  0  0  0  0  0  0  0  0  0  0
    3.9995   -5.3517    3.3160 C   0  0  0  0  0  0  0  0  0  0  0  0
    2.9351   -5.1260    4.1863 C   0  0  0  0  0  0  0  0  0  0  0  0
    1.6804   -4.7974    3.6789 C   0  0  0  0  0  0  0  0  0  0  0  0
    1.4900   -4.6913    2.3004 C   0  0  0  0  0  0  0  0  0  0  0  0
    0.6478   -6.0324   -1.5767 C   0  0  0  0  0  0  0  0  0  0  0  0
    0.5886   -6.4553   -2.7358 O   0  0  0  0  0  0  0  0  0  0  0  0
   -0.4328   -5.4588   -0.9576 N   0  0  0  0  0  0  0  0  0  0  0  0
   -1.7486   -5.2909   -1.5761 C   0  0  1  0  0  0  0  0  0  0  0  0
   -2.8269   -6.1307   -0.8455 C   0  0  0  0  0  0  0  0  0  0  0  0
   -2.7916   -6.0573    0.6685 C   0  0  0  0  0  0  0  0  0  0  0  0
   -3.5795   -5.1201    1.3476 C   0  0  0  0  0  0  0  0  0  0  0  0
   -3.4259   -4.9264    2.7183 C   0  0  0  0  0  0  0  0  0  0  0  0
   -2.4913   -5.6803    3.4165 C   0  0  0  0  0  0  0  0  0  0  0  0
   -1.7635   -6.6771    2.7819 C   0  0  0  0  0  0  0  0  0  0  0  0
   -1.9148   -6.8686    1.4075 C   0  0  0  0  0  0  0  0  0  0  0  0
   -2.2404   -5.4284    4.7331 O   0  0  0  0  0  0  0  0  0  0  0  0
   -2.0677   -3.7745   -1.5807 C   0  0  0  0  0  0  0  0  0  0  0  0
   -2.4619   -3.1941   -0.5669 O   0  0  0  0  0  0  0  0  0  0  0  0
   -1.8046   -3.0539   -2.7307 N   0  0  0  0  0  0  0  0  0  0  0  0
   -0.9220   -3.4716   -3.8105 C   0  0  0  0  0  0  0  0  0  0  0  0
   -0.2051   -2.1962   -4.2116 C   0  0  0  0  0  0  0  0  0  0  0  0
   -1.2848   -1.1501   -4.0310 C   0  0  0  0  0  0  0  0  0  0  0  0
   -2.0014   -1.5954   -2.7547 C   0  0  1  0  0  0  0  0  0  0  0  0
   -3.4972   -1.2096   -2.7905 C   0  0  0  0  0  0  0  0  0  0  0  0
   -4.1745   -1.2774   -3.8208 O   0  0  0  0  0  0  0  0  0  0  0  0
   -4.0272   -0.8530   -1.5652 N   0  0  0  0  0  0  0  0  0  0  0  0
   -5.4670   -0.8279   -1.3266 C   0  0  1  0  0  0  0  0  0  0  0  0
   -5.8353   -1.5120    0.0030 C   0  0  0  0  0  0  0  0  0  0  0  0
   -5.3932   -0.8031    1.2901 C   0  0  0  0  0  0  0  0  0  0  0  0
   -6.4288    0.1893    1.8281 C   0  0  0  0  0  0  0  0  0  0  0  0
   -6.0844    0.6177    3.1830 N   0  0  0  0  0  0  0  0  0  0  0  0
   -5.0925    1.5030    3.4183 C   0  0  0  0  0  0  0  0  0  0  0  0
   -4.4656    2.1491    2.5135 N   0  0  0  0  0  0  0  0  0  0  0  0
   -4.8359    1.6387    4.7360 N   0  0  0  0  0  0  0  0  0  0  0  0
   -6.1931    0.5223   -1.5071 C   0  0  0  0  0  0  0  0  0  0  0  0
   -7.4248    0.5692   -1.5093 O   0  0  0  0  0  0  0  0  0  0  0  0
   -5.4114    1.6521   -1.6096 N   0  0  0  0  0  0  0  0  0  0  0  0
   -5.9837    2.9093   -2.0996 C   0  0  1  0  0  0  0  0  0  0  0  0
   -7.0074    3.5822   -1.1663 C   0  0  0  0  0  0  0  0  0  0  0  0
   -6.4967    4.0321    0.2070 C   0  0  0  0  0  0  0  0  0  0  0  0
   -5.8127    5.4028    0.1977 C   0  0  0  0  0  0  0  0  0  0  0  0
   -5.7780    6.0827    1.5711 C   0  0  0  0  0  0  0  0  0  0  0  0
   -5.0233    5.3335    2.5824 N   0  0  0  0  0  0  0  0  0  0  0  0
   -4.8822    3.8906   -2.5600 C   0  0  0  0  0  0  0  0  0  0  0  0
   -3.7043    3.7866   -2.2242 O   0  0  0  0  0  0  0  0  0  0  0  0
   -5.3274    4.8702   -3.4321 N   0  0  0  0  0  0  0  0  0  0  0  0
   -4.4114    5.6572   -4.2620 C   0  0  1  0  0  0  0  0  0  0  0  0
   -3.3680    6.5100   -3.5247 C   0  0  0  0  0  0  0  0  0  0  0  0
   -3.9550    7.5867   -2.5898 C   0  0  0  0  0  0  0  0  0  0  0  0
   -4.8414    8.5939   -3.3233 C   0  0  0  0  0  0  0  0  0  0  0  0
   -2.8191    8.3281   -1.8790 C   0  0  0  0  0  0  0  0  0  0  0  0
   -3.8198    4.6937   -5.3158 C   0  0  0  0  0  0  0  0  0  0  0  0
   -4.3836    4.4970   -6.3912 O   0  0  0  0  0  0  0  0  0  0  0  0
   -2.7289    3.9609   -4.8991 N   0  0  0  0  0  0  0  0  0  0  0  0
   -2.3363    2.7427   -5.6149 C   0  0  1  0  0  0  0  0  0  0  0  0
   -0.8304    2.5174   -5.4444 C   0  0  0  0  0  0  0  0  0  0  0  0
   -0.2501    1.5378   -6.4689 C   0  0  0  0  0  0  0  0  0  0  0  0
    1.1208    0.9823   -6.0733 C   0  0  0  0  0  0  0  0  0  0  0  0
    2.0946    2.0415   -5.8631 N   0  0  0  0  0  0  0  0  0  0  0  0
    3.4186    1.7640   -5.8344 C   0  0  0  0  0  0  0  0  0  0  0  0
    3.9431    0.6114   -6.0371 N   0  0  0  0  0  0  0  0  0  0  0  0
    4.1441    2.8632   -5.5548 N   0  0  0  0  0  0  0  0  0  0  0  0
   -3.0996    1.6030   -4.9353 C   0  0  0  0  0  0  0  0  0  0  0  0
   -3.2196    1.4703   -3.7238 O   0  0  0  0  0  0  0  0  0  0  0  0
   -3.6091    0.6829   -5.7738 O   0  0  0  0  0  0  0  0  0  0  0  0
    2.9070   -7.3974   -4.2164 N   0  0  0  0  0  0  0  0  0  0  0  0
    3.5867   -6.3005   -4.6956 C   0  0  0  0  0  0  0  0  0  0  0  0
    4.8058   -6.1596   -4.6412 O   0  0  0  0  0  0  0  0  0  0  0  0
    2.6834   -5.2079   -5.3031 C   0  0  2  0  0  0  0  0  0  0  0  0
    2.4142   -5.4965   -6.7835 C   0  0  0  0  0  0  0  0  0  0  0  0
    1.3721   -4.5580   -7.3531 C   0  0  0  0  0  0  0  0  0  0  0  0
    0.0080   -4.8780   -7.2793 C   0  0  0  0  0  0  0  0  0  0  0  0
   -0.9580   -3.9810   -7.7450 C   0  0  0  0  0  0  0  0  0  0  0  0
   -0.5582   -2.7617   -8.2813 C   0  0  0  0  0  0  0  0  0  0  0  0
    0.7880   -2.4341   -8.3751 C   0  0  0  0  0  0  0  0  0  0  0  0
    1.7526   -3.3292   -7.9116 C   0  0  0  0  0  0  0  0  0  0  0  0
   -1.4642   -1.8432   -8.7202 O   0  0  0  0  0  0  0  0  0  0  0  0
    3.3806   -3.9369   -5.0948 N   0  0  0  0  0  0  0  0  0  0  0  0
    3.2913   -3.3010   -3.8737 C   0  0  0  0  0  0  0  0  0  0  0  0
    2.5259   -3.6772   -2.9870 O   0  0  0  0  0  0  0  0  0  0  0  0
    4.2375   -2.1135   -3.7133 C   0  0  0  0  0  0  0  0  0  0  0  0
    3.5713   -0.9897   -3.0874 N   0  0  0  0  0  0  0  0  0  0  0  0
    4.2912   -0.0444   -2.3898 C   0  0  0  0  0  0  0  0  0  0  0  0
    5.4854   -0.1938   -2.1357 O   0  0  0  0  0  0  0  0  0  0  0  0
    3.5037    1.2568   -2.1019 C   0  0  2  0  0  0  0  0  0  0  0  0
    4.1895    2.1109   -1.0221 C   0  0  0  0  0  0  0  0  0  0  0  0
    5.3883    2.8797   -1.5756 C   0  0  0  0  0  0  0  0  0  0  0  0
    6.1339    3.9666   -0.3117 S   0  0  0  0  0  0  0  0  0  0  0  0
    6.9368    2.7129    0.7211 C   0  0  0  0  0  0  0  0  0  0  0  0
    2.1232    0.9471   -1.7017 N   0  0  0  0  0  0  0  0  0  0  0  0
    1.1172    1.8833   -1.8745 C   0  0  0  0  0  0  0  0  0  0  0  0
    1.2014    2.7627   -2.7320 O   0  0  0  0  0  0  0  0  0  0  0  0
   -0.1427    1.7095   -0.9723 C   0  0  2  0  0  0  0  0  0  0  0  0
   -0.5945    3.0886   -0.4668 C   0  0  0  0  0  0  0  0  0  0  0  0
   -1.7990    3.0172    0.4644 C   0  0  0  0  0  0  0  0  0  0  0  0
   -2.2021    4.3724    0.9727 C   0  0  0  0  0  0  0  0  0  0  0  0
   -2.1937    5.4245    0.3593 O   0  0  0  0  0  0  0  0  0  0  0  0
   -2.6498    4.3023    2.2501 O   0  0  0  0  0  0  0  0  0  0  0  0
    0.1564    0.8095    0.1404 N   0  0  0  0  0  0  0  0  0  0  0  0
   -0.7129   -0.1014    0.6899 C   0  0  0  0  0  0  0  0  0  0  0  0
   -1.8701   -0.2067    0.2866 O   0  0  0  0  0  0  0  0  0  0  0  0
   -0.0717   -1.0993    1.7077 C   0  0  2  0  0  0  0  0  0  0  0  0
   -1.1604   -1.7918    2.5538 C   0  0  0  0  0  0  0  0  0  0  0  0
   -1.8936   -0.8376    3.5023 C   0  0  0  0  0  0  0  0  0  0  0  0
   -2.5795   -1.5535    4.6479 C   0  0  0  0  0  0  0  0  0  0  0  0
   -2.5211   -2.7563    4.8769 O   0  0  0  0  0  0  0  0  0  0  0  0
   -3.2703   -0.7284    5.4868 N   0  0  0  0  0  0  0  0  0  0  0  0
    0.9697   -0.5726    2.6107 N   0  0  0  0  0  0  0  0  0  0  0  0
    2.2148   -0.1492    2.2045 C   0  0  0  0  0  0  0  0  0  0  0  0
    2.4597    0.0432    1.0124 O   0  0  0  0  0  0  0  0  0  0  0  0
    3.2883    0.0172    3.3115 C   0  0  2  0  0  0  0  0  0  0  0  0
    4.1204   -1.2696    3.4425 C   0  0  0  0  0  0  0  0  0  0  0  0
    5.2132   -1.3107    2.4119 C   0  0  0  0  0  0  0  0  0  0  0  0
    5.0781   -1.6975    1.0928 C   0  0  0  0  0  0  0  0  0  0  0  0
    6.2647   -1.4702    0.4497 N   0  0  0  0  0  0  0  0  0  0  0  0
    7.2045   -1.0126    1.3427 C   0  0  0  0  0  0  0  0  0  0  0  0
    8.5473   -0.6732    1.1393 C   0  0  0  0  0  0  0  0  0  0  0  0
    9.2689   -0.1974    2.2373 C   0  0  0  0  0  0  0  0  0  0  0  0
    8.6679   -0.0641    3.4863 C   0  0  0  0  0  0  0  0  0  0  0  0
    7.3233   -0.4069    3.6718 C   0  0  0  0  0  0  0  0  0  0  0  0
    6.5739   -0.8969    2.5822 C   0  0  0  0  0  0  0  0  0  0  0  0
    2.7316    0.5107    4.5811 N   0  0  0  0  0  0  0  0  0  0  0  0
    1.9323   -0.2119    5.4370 C   0  0  0  0  0  0  0  0  0  0  0  0
    1.5692   -1.3555    5.1733 O   0  0  0  0  0  0  0  0  0  0  0  0
    1.4418    0.5820    6.6687 C   0  0  2  0  0  0  0  0  0  0  0  0
    0.7561   -0.3331    7.6863 C   0  0  0  0  0  0  0  0  0  0  0  0
    0.1947    0.3760    8.9295 C   0  0  0  0  0  0  0  0  0  0  0  0
    1.2538    0.9661    9.8612 C   0  0  0  0  0  0  0  0  0  0  0  0
    1.6092    2.3264    9.4881 N   0  0  0  0  0  0  0  0  0  0  0  0
    2.5475    3.0311   10.1614 C   0  0  0  0  0  0  0  0  0  0  0  0
    2.9698    2.8560   11.3565 N   0  0  0  0  0  0  0  0  0  0  0  0
    3.0636    4.0261    9.4187 N   0  0  0  0  0  0  0  0  0  0  0  0
    0.5038    1.6012    6.1988 N   0  0  0  0  0  0  0  0  0  0  0  0
    0.9241    2.8059    5.6847 C   0  0  0  0  0  0  0  0  0  0  0  0
    2.0968    3.1643    5.7160 O   0  0  0  0  0  0  0  0  0  0  0  0
   -0.2084    3.6603    5.0817 C   0  0  2  0  0  0  0  0  0  0  0  0
   -1.0501    4.3126    6.1837 C   0  0  0  0  0  0  0  0  0  0  0  0
   -0.2480    5.3599    6.9564 C   0  0  0  0  0  0  0  0  0  0  0  0
   -1.2659    6.1408    8.2506 S   0  0  0  0  0  0  0  0  0  0  0  0
   -1.1111    4.8889    9.5514 C   0  0  0  0  0  0  0  0  0  0  0  0
   -1.0835    2.7742    4.2721 N   0  0  0  0  0  0  0  0  0  0  0  0
    3.6686  -11.0426   -1.9868 H   0  0  0  0  0  0  0  0  0  0  0  0
    5.0598  -12.1039   -2.1730 H   0  0  0  0  0  0  0  0  0  0  0  0
    5.2194  -10.6246   -1.2231 H   0  0  0  0  0  0  0  0  0  0  0  0
    4.6477  -10.7841   -4.2318 H   0  0  0  0  0  0  0  0  0  0  0  0
    6.2397  -10.5138   -3.5516 H   0  0  0  0  0  0  0  0  0  0  0  0
    5.2675   -8.5008   -4.4115 H   0  0  0  0  0  0  0  0  0  0  0  0
    6.8848   -8.3246   -2.5946 H   0  0  0  0  0  0  0  0  0  0  0  0
    5.6161   -8.3820   -1.3684 H   0  0  0  0  0  0  0  0  0  0  0  0
    5.7311   -6.9989   -2.4592 H   0  0  0  0  0  0  0  0  0  0  0  0
    2.8295   -9.3078   -3.5690 H   0  0  0  0  0  0  0  0  0  0  0  0
    3.2082   -6.1054   -2.3314 H   0  0  0  0  0  0  0  0  0  0  0  0
    1.6795   -6.9113    0.0856 H   0  0  0  0  0  0  0  0  0  0  0  0
    1.6290   -4.0232   -0.2820 H   0  0  0  0  0  0  0  0  0  0  0  0
    3.2914   -4.4738   -0.5301 H   0  0  0  0  0  0  0  0  0  0  0  0
    4.6512   -5.4358    1.2724 H   0  0  0  0  0  0  0  0  0  0  0  0
    4.9792   -5.6096    3.7098 H   0  0  0  0  0  0  0  0  0  0  0  0
    3.0816   -5.2086    5.2598 H   0  0  0  0  0  0  0  0  0  0  0  0
    0.8469   -4.6278    4.3577 H   0  0  0  0  0  0  0  0  0  0  0  0
    0.4993   -4.4387    1.9354 H   0  0  0  0  0  0  0  0  0  0  0  0
   -0.3573   -5.1541    0.0055 H   0  0  0  0  0  0  0  0  0  0  0  0
   -1.7246   -5.6457   -2.6118 H   0  0  0  0  0  0  0  0  0  0  0  0
   -2.7012   -7.1847   -1.1282 H   0  0  0  0  0  0  0  0  0  0  0  0
   -3.8245   -5.8436   -1.2022 H   0  0  0  0  0  0  0  0  0  0  0  0
   -4.2804   -4.4923    0.8033 H   0  0  0  0  0  0  0  0  0  0  0  0
   -4.0162   -4.1674    3.2211 H   0  0  0  0  0  0  0  0  0  0  0  0
   -1.0521   -7.2742    3.3455 H   0  0  0  0  0  0  0  0  0  0  0  0
   -1.3117   -7.6273    0.9123 H   0  0  0  0  0  0  0  0  0  0  0  0
   -2.4558   -4.4808    4.8938 H   0  0  0  0  0  0  0  0  0  0  0  0
   -0.2162   -4.2393   -3.5077 H   0  0  0  0  0  0  0  0  0  0  0  0
   -1.5526   -3.8505   -4.6208 H   0  0  0  0  0  0  0  0  0  0  0  0
    0.6153   -1.9846   -3.5179 H   0  0  0  0  0  0  0  0  0  0  0  0
    0.1995   -2.2299   -5.2244 H   0  0  0  0  0  0  0  0  0  0  0  0
   -0.8741   -0.1448   -3.9248 H   0  0  0  0  0  0  0  0  0  0  0  0
   -1.9401   -1.1641   -4.9073 H   0  0  0  0  0  0  0  0  0  0  0  0
   -1.5004   -1.1687   -1.8855 H   0  0  0  0  0  0  0  0  0  0  0  0
   -3.3917   -0.8235   -0.7623 H   0  0  0  0  0  0  0  0  0  0  0  0
   -5.9065   -1.4576   -2.1138 H   0  0  0  0  0  0  0  0  0  0  0  0
   -6.9179   -1.6869    0.0381 H   0  0  0  0  0  0  0  0  0  0  0  0
   -5.3706   -2.5063   -0.0023 H   0  0  0  0  0  0  0  0  0  0  0  0
   -4.4275   -0.3088    1.1516 H   0  0  0  0  0  0  0  0  0  0  0  0
   -5.2309   -1.5742    2.0555 H   0  0  0  0  0  0  0  0  0  0  0  0
   -7.4125   -0.2912    1.8749 H   0  0  0  0  0  0  0  0  0  0  0  0
   -6.5326    1.0563    1.1710 H   0  0  0  0  0  0  0  0  0  0  0  0
   -6.1568   -0.1303    3.8610 H   0  0  0  0  0  0  0  0  0  0  0  0
   -3.7327    2.7478    2.9033 H   0  0  0  0  0  0  0  0  0  0  0  0
   -4.2789    2.4624    4.9454 H   0  0  0  0  0  0  0  0  0  0  0  0
   -5.6989    1.6701    5.2727 H   0  0  0  0  0  0  0  0  0  0  0  0
   -4.4315    1.4889   -1.8467 H   0  0  0  0  0  0  0  0  0  0  0  0
   -6.5248    2.6275   -3.0149 H   0  0  0  0  0  0  0  0  0  0  0  0
   -7.4626    4.4393   -1.6784 H   0  0  0  0  0  0  0  0  0  0  0  0
   -7.8336    2.8847   -0.9885 H   0  0  0  0  0  0  0  0  0  0  0  0
   -5.8216    3.2791    0.6178 H   0  0  0  0  0  0  0  0  0  0  0  0
   -7.3639    4.0816    0.8778 H   0  0  0  0  0  0  0  0  0  0  0  0
   -6.3487    6.0733   -0.4849 H   0  0  0  0  0  0  0  0  0  0  0  0
   -4.7947    5.3044   -0.1880 H   0  0  0  0  0  0  0  0  0  0  0  0
   -6.8041    6.2264    1.9289 H   0  0  0  0  0  0  0  0  0  0  0  0
   -5.3280    7.0762    1.4707 H   0  0  0  0  0  0  0  0  0  0  0  0
   -5.3674    4.3611    2.5712 H   0  0  0  0  0  0  0  0  0  0  0  0
   -5.2998    5.6991    3.4974 H   0  0  0  0  0  0  0  0  0  0  0  0
   -6.2429    4.7229   -3.8411 H   0  0  0  0  0  0  0  0  0  0  0  0
   -5.0525    6.3357   -4.8378 H   0  0  0  0  0  0  0  0  0  0  0  0
   -2.6909    5.8789   -2.9389 H   0  0  0  0  0  0  0  0  0  0  0  0
   -2.7311    6.9982   -4.2753 H   0  0  0  0  0  0  0  0  0  0  0  0
   -4.5615    7.0964   -1.8221 H   0  0  0  0  0  0  0  0  0  0  0  0
   -5.7502    8.1208   -3.7071 H   0  0  0  0  0  0  0  0  0  0  0  0
   -4.3105    9.0516   -4.1647 H   0  0  0  0  0  0  0  0  0  0  0  0
   -5.1592    9.3959   -2.6481 H   0  0  0  0  0  0  0  0  0  0  0  0
   -2.1840    7.6312   -1.3232 H   0  0  0  0  0  0  0  0  0  0  0  0
   -2.1866    8.8652   -2.5941 H   0  0  0  0  0  0  0  0  0  0  0  0
   -3.2171    9.0566   -1.1646 H   0  0  0  0  0  0  0  0  0  0  0  0
   -2.6192    3.9119   -3.8823 H   0  0  0  0  0  0  0  0  0  0  0  0
   -2.6252    2.8225   -6.6676 H   0  0  0  0  0  0  0  0  0  0  0  0
   -0.6294    2.1543   -4.4308 H   0  0  0  0  0  0  0  0  0  0  0  0
   -0.3049    3.4762   -5.5422 H   0  0  0  0  0  0  0  0  0  0  0  0
   -0.9287    0.6882   -6.6062 H   0  0  0  0  0  0  0  0  0  0  0  0
   -0.1772    2.0428   -7.4401 H   0  0  0  0  0  0  0  0  0  0  0  0
    1.4566    0.3127   -6.8734 H   0  0  0  0  0  0  0  0  0  0  0  0
    1.0411    0.3872   -5.1586 H   0  0  0  0  0  0  0  0  0  0  0  0
    1.8263    2.6681   -5.1039 H   0  0  0  0  0  0  0  0  0  0  0  0
    4.9575    0.6915   -5.9435 H   0  0  0  0  0  0  0  0  0  0  0  0
    3.7081    3.7104   -5.9044 H   0  0  0  0  0  0  0  0  0  0  0  0
    5.1153    2.8202   -5.8355 H   0  0  0  0  0  0  0  0  0  0  0  0
   -4.0338    0.0055   -5.1856 H   0  0  0  0  0  0  0  0  0  0  0  0
    1.9005   -7.2618   -4.1015 H   0  0  0  0  0  0  0  0  0  0  0  0
    1.7407   -5.1777   -4.7466 H   0  0  0  0  0  0  0  0  0  0  0  0
    3.3395   -5.4157   -7.3691 H   0  0  0  0  0  0  0  0  0  0  0  0
    2.0714   -6.5310   -6.9148 H   0  0  0  0  0  0  0  0  0  0  0  0
   -0.3131   -5.8248   -6.8499 H   0  0  0  0  0  0  0  0  0  0  0  0
   -2.0084   -4.2453   -7.6735 H   0  0  0  0  0  0  0  0  0  0  0  0
    1.0886   -1.4801   -8.7999 H   0  0  0  0  0  0  0  0  0  0  0  0
    2.8018   -3.0494   -7.9772 H   0  0  0  0  0  0  0  0  0  0  0  0
   -2.3593   -2.2060   -8.6150 H   0  0  0  0  0  0  0  0  0  0  0  0
    4.2628   -3.8380   -5.5863 H   0  0  0  0  0  0  0  0  0  0  0  0
    5.0900   -2.4391   -3.1082 H   0  0  0  0  0  0  0  0  0  0  0  0
    4.6107   -1.7787   -4.6855 H   0  0  0  0  0  0  0  0  0  0  0  0
    2.7091   -0.6648   -3.5119 H   0  0  0  0  0  0  0  0  0  0  0  0
    3.4594    1.8212   -3.0369 H   0  0  0  0  0  0  0  0  0  0  0  0
    3.4683    2.8310   -0.6133 H   0  0  0  0  0  0  0  0  0  0  0  0
    4.4942    1.4661   -0.1896 H   0  0  0  0  0  0  0  0  0  0  0  0
    6.1629    2.2178   -1.9715 H   0  0  0  0  0  0  0  0  0  0  0  0
    5.0627    3.5245   -2.3989 H   0  0  0  0  0  0  0  0  0  0  0  0
    6.1922    2.1029    1.2366 H   0  0  0  0  0  0  0  0  0  0  0  0
    7.5857    2.0801    0.1114 H   0  0  0  0  0  0  0  0  0  0  0  0
    7.5505    3.2122    1.4758 H   0  0  0  0  0  0  0  0  0  0  0  0
    2.0382    0.2886   -0.9299 H   0  0  0  0  0  0  0  0  0  0  0  0
   -0.9280    1.2589   -1.5892 H   0  0  0  0  0  0  0  0  0  0  0  0
    0.2366    3.5796    0.0578 H   0  0  0  0  0  0  0  0  0  0  0  0
   -0.8313    3.7333   -1.3231 H   0  0  0  0  0  0  0  0  0  0  0  0
   -2.6623    2.5685   -0.0367 H   0  0  0  0  0  0  0  0  0  0  0  0
   -1.5549    2.4012    1.3349 H   0  0  0  0  0  0  0  0  0  0  0  0
   -3.3245    5.0402    2.2987 H   0  0  0  0  0  0  0  0  0  0  0  0
    1.0732    0.8925    0.5679 H   0  0  0  0  0  0  0  0  0  0  0  0
    0.4199   -1.8623    1.0895 H   0  0  0  0  0  0  0  0  0  0  0  0
   -1.8955   -2.2791    1.9037 H   0  0  0  0  0  0  0  0  0  0  0  0
   -0.6880   -2.5931    3.1347 H   0  0  0  0  0  0  0  0  0  0  0  0
   -2.6410   -0.2621    2.9478 H   0  0  0  0  0  0  0  0  0  0  0  0
   -1.1929   -0.1293    3.9553 H   0  0  0  0  0  0  0  0  0  0  0  0
   -3.6435    0.1509    5.1289 H   0  0  0  0  0  0  0  0  0  0  0  0
   -3.8246   -1.1874    6.1977 H   0  0  0  0  0  0  0  0  0  0  0  0
    1.0261   -1.0804    3.4964 H   0  0  0  0  0  0  0  0  0  0  0  0
    3.9290    0.8450    2.9774 H   0  0  0  0  0  0  0  0  0  0  0  0
    4.5707   -1.3305    4.4408 H   0  0  0  0  0  0  0  0  0  0  0  0
    3.4849   -2.1550    3.3323 H   0  0  0  0  0  0  0  0  0  0  0  0
    4.2232   -2.0629    0.5393 H   0  0  0  0  0  0  0  0  0  0  0  0
    6.4117   -1.5640   -0.5488 H   0  0  0  0  0  0  0  0  0  0  0  0
    9.0136   -0.7695    0.1641 H   0  0  0  0  0  0  0  0  0  0  0  0
   10.3149    0.0732    2.1123 H   0  0  0  0  0  0  0  0  0  0  0  0
    9.2476    0.3083    4.3274 H   0  0  0  0  0  0  0  0  0  0  0  0
    6.8686   -0.2983    4.6517 H   0  0  0  0  0  0  0  0  0  0  0  0
    2.9475    1.4740    4.8408 H   0  0  0  0  0  0  0  0  0  0  0  0
    2.3238    1.0565    7.1113 H   0  0  0  0  0  0  0  0  0  0  0  0
   -0.0796   -0.8539    7.1988 H   0  0  0  0  0  0  0  0  0  0  0  0
    1.4564   -1.1173    8.0014 H   0  0  0  0  0  0  0  0  0  0  0  0
   -0.5403    1.1375    8.6428 H   0  0  0  0  0  0  0  0  0  0  0  0
   -0.3574   -0.3838    9.4983 H   0  0  0  0  0  0  0  0  0  0  0  0
    2.1463    0.3304    9.8823 H   0  0  0  0  0  0  0  0  0  0  0  0
    0.8360    0.9845   10.8747 H   0  0  0  0  0  0  0  0  0  0  0  0
    1.7056    2.4718    8.4892 H   0  0  0  0  0  0  0  0  0  0  0  0
    2.4748    2.0771   11.7900 H   0  0  0  0  0  0  0  0  0  0  0  0
    2.3653    4.6223    8.9963 H   0  0  0  0  0  0  0  0  0  0  0  0
    3.6847    4.5844    9.9987 H   0  0  0  0  0  0  0  0  0  0  0  0
   -0.3999    1.2972    5.8369 H   0  0  0  0  0  0  0  0  0  0  0  0
    0.2377    4.4113    4.4202 H   0  0  0  0  0  0  0  0  0  0  0  0
   -1.4273    3.5435    6.8697 H   0  0  0  0  0  0  0  0  0  0  0  0
   -1.9263    4.7950    5.7295 H   0  0  0  0  0  0  0  0  0  0  0  0
    0.6483    4.9338    7.4155 H   0  0  0  0  0  0  0  0  0  0  0  0
    0.0788    6.1510    6.2731 H   0  0  0  0  0  0  0  0  0  0  0  0
   -0.0698    4.8045    9.8699 H   0  0  0  0  0  0  0  0  0  0  0  0
   -1.7103    5.1949   10.4131 H   0  0  0  0  0  0  0  0  0  0  0  0
   -1.4742    3.9180    9.2066 H   0  0  0  0  0  0  0  0  0  0  0  0
   -0.5071    2.3454    3.5424 H   0  0  0  0  0  0  0  0  0  0  0  0
   -1.7153    3.3841    3.7323 H   0  0  0  0  0  0  0  0  0  0  0  0
  1  2  1  0
  2  3  1  0
  3  4  1  0
  3  5  1  0
  5  6  1  0
  6  7  2  0
  6  8  1  0
  8  9  1  0
  9 10  1  0
 10 11  1  0
 11 12  2  0
 12 13  1  0
 13 14  2  0
 14 15  1  0
 15 16  2  0
  9 17  1  0
 17 18  2  0
 17 19  1  0
 19 20  1  0
 20 21  1  0
 21 22  1  0
 22 23  1  0
 23 24  2  0
 24 25  1  0
 25 26  2  0
 26 27  1  0
 25 28  1  0
 20 29  1  0
 29 30  2  0
 29 31  1  0
 31 32  1  0
 32 33  1  0
 33 34  1  0
 34 35  1  0
 35 36  1  0
 36 37  2  0
 36 38  1  0
 38 39  1  0
 39 40  1  0
 40 41  1  0
 41 42  1  0
 42 43  1  0
 43 44  1  0
 44 45  2  3
 44 46  1  0
 39 47  1  0
 47 48  2  0
 47 49  1  0
 49 50  1  0
 50 51  1  0
 51 52  1  0
 52 53  1  0
 53 54  1  0
 54 55  1  0
 50 56  1  0
 56 57  2  0
 56 58  1  0
 58 59  1  0
 59 60  1  0
 60 61  1  0
 61 62  1  0
 61 63  1  0
 59 64  1  0
 64 65  2  0
 64 66  1  0
 66 67  1  0
 67 68  1  0
 68 69  1  0
 69 70  1  0
 70 71  1  0
 71 72  1  0
 72 73  2  3
 72 74  1  0
 67 75  1  0
 75 76  2  0
 75 77  1  0
  5 78  1  0
 78 79  1  0
 79 80  2  0
 79 81  1  0
 81 82  1  0
 82 83  1  0
 83 84  1  0
 84 85  2  0
 85 86  1  0
 86 87  2  0
 87 88  1  0
 86 89  1  0
 81 90  1  0
 90 91  1  0
 91 92  2  0
 91 93  1  0
 93 94  1  0
 94 95  1  0
 95 96  2  0
 95 97  1  0
 97 98  1  0
 98 99  1  0
 99100  1  0
100101  1  0
 97102  1  0
102103  1  0
103104  2  0
103105  1  0
105106  1  0
106107  1  0
107108  1  0
108109  2  0
108110  1  0
105111  1  0
111112  1  0
112113  2  0
112114  1  0
114115  1  0
115116  1  0
116117  1  0
117118  2  0
117119  1  0
114120  1  0
120121  1  0
121122  2  0
121123  1  0
123124  1  0
124125  1  0
125126  2  0
126127  1  0
127128  1  0
128129  2  0
129130  1  0
130131  2  0
131132  1  0
132133  2  0
123134  1  0
134135  1  0
135136  2  0
135137  1  0
137138  1  0
138139  1  0
139140  1  0
140141  1  0
141142  1  0
142143  2  3
142144  1  0
137145  1  0
145146  1  0
146147  2  0
146148  1  0
148149  1  0
149150  1  0
150151  1  0
151152  1  0
148153  1  0
 16 11  1  0
 27 22  2  0
 35 31  1  0
 88 83  2  0
133125  1  0
133128  1  0
  1154  1  0
  1155  1  0
  1156  1  0
  2157  1  0
  2158  1  0
  3159  1  6
  4160  1  0
  4161  1  0
  4162  1  0
  5163  1  6
  8164  1  0
  9165  1  1
 10166  1  0
 10167  1  0
 12168  1  0
 13169  1  0
 14170  1  0
 15171  1  0
 16172  1  0
 19173  1  0
 20174  1  6
 21175  1  0
 21176  1  0
 23177  1  0
 24178  1  0
 26179  1  0
 27180  1  0
 28181  1  0
 32182  1  0
 32183  1  0
 33184  1  0
 33185  1  0
 34186  1  0
 34187  1  0
 35188  1  1
 38189  1  0
 39190  1  6
 40191  1  0
 40192  1  0
 41193  1  0
 41194  1  0
 42195  1  0
 42196  1  0
 43197  1  0
 45198  1  0
 46199  1  0
 46200  1  0
 49201  1  0
 50202  1  6
 51203  1  0
 51204  1  0
 52205  1  0
 52206  1  0
 53207  1  0
 53208  1  0
 54209  1  0
 54210  1  0
 55211  1  0
 55212  1  0
 58213  1  0
 59214  1  6
 60215  1  0
 60216  1  0
 61217  1  0
 62218  1  0
 62219  1  0
 62220  1  0
 63221  1  0
 63222  1  0
 63223  1  0
 66224  1  0
 67225  1  6
 68226  1  0
 68227  1  0
 69228  1  0
 69229  1  0
 70230  1  0
 70231  1  0
 71232  1  0
 73233  1  0
 74234  1  0
 74235  1  0
 77236  1  0
 78237  1  0
 81238  1  1
 82239  1  0
 82240  1  0
 84241  1  0
 85242  1  0
 87243  1  0
 88244  1  0
 89245  1  0
 90246  1  0
 93247  1  0
 93248  1  0
 94249  1  0
 97250  1  6
 98251  1  0
 98252  1  0
 99253  1  0
 99254  1  0
101255  1  0
101256  1  0
101257  1  0
102258  1  0
105259  1  6
106260  1  0
106261  1  0
107262  1  0
107263  1  0
110264  1  0
111265  1  0
114266  1  6
115267  1  0
115268  1  0
116269  1  0
116270  1  0
119271  1  0
119272  1  0
120273  1  0
123274  1  6
124275  1  0
124276  1  0
126277  1  0
127278  1  0
129279  1  0
130280  1  0
131281  1  0
132282  1  0
134283  1  0
137284  1  1
138285  1  0
138286  1  0
139287  1  0
139288  1  0
140289  1  0
140290  1  0
141291  1  0
143292  1  0
144293  1  0
144294  1  0
145295  1  0
148296  1  6
149297  1  0
149298  1  0
150299  1  0
150300  1  0
152301  1  0
152302  1  0
152303  1  0
153304  1  0
153305  1  0
M  END
