
     RDKit          3D

229234  0  0  0  0  0  0  0  0999 V2000
    3.0759   -1.8085   -2.1921 C   0  0  0  0  0  0  0  0  0  0  0  0
    3.2715   -1.1926   -0.8170 C   0  0  0  0  0  0  0  0  0  0  0  0
    2.1445   -0.2180   -0.4739 C   0  0  0  0  0  0  0  0  0  0  0  0
    2.1551    0.2538    0.9882 C   0  0  0  0  0  0  0  0  0  0  0  0
    3.1925    1.3316    1.3570 C   0  0  1  0  0  0  0  0  0  0  0  0
    4.6546    0.8411    1.2644 C   0  0  0  0  0  0  0  0  0  0  0  0
    5.4669    1.3263    0.4778 O   0  0  0  0  0  0  0  0  0  0  0  0
    4.9752   -0.1880    2.1213 N   0  0  0  0  0  0  0  0  0  0  0  0
    6.1747   -1.0107    1.9093 C   0  0  1  0  0  0  0  0  0  0  0  0
    7.4324   -0.3266    2.4633 C   0  0  0  0  0  0  0  0  0  0  0  0
    8.7215   -1.0252    2.0373 C   0  0  0  0  0  0  0  0  0  0  0  0
    8.9771   -0.8683    0.5650 C   0  0  0  0  0  0  0  0  0  0  0  0
    8.8331   -1.7322   -0.2824 O   0  0  0  0  0  0  0  0  0  0  0  0
    9.3793    0.3715    0.2364 O   0  0  0  0  0  0  0  0  0  0  0  0
    5.8836   -2.3593    2.6004 C   0  0  0  0  0  0  0  0  0  0  0  0
    5.8934   -3.4363    2.0138 O   0  0  0  0  0  0  0  0  0  0  0  0
    5.5723   -2.2495    3.9471 N   0  0  0  0  0  0  0  0  0  0  0  0
    4.5821   -3.1750    4.5134 C   0  0  1  0  0  0  0  0  0  0  0  0
    4.8883   -3.4446    5.9902 C   0  0  0  0  0  0  0  0  0  0  0  0
    4.1106   -4.5827    6.5541 C   0  0  0  0  0  0  0  0  0  0  0  0
    3.0465   -4.6222    7.4292 C   0  0  0  0  0  0  0  0  0  0  0  0
    2.6342   -5.9100    7.6350 N   0  0  0  0  0  0  0  0  0  0  0  0
    3.4506   -6.6571    6.9293 C   0  0  0  0  0  0  0  0  0  0  0  0
    4.3737   -5.9006    6.2652 N   0  0  0  0  0  0  0  0  0  0  0  0
    3.2380   -2.4323    4.3313 C   0  0  0  0  0  0  0  0  0  0  0  0
    3.2048   -1.2282    4.0526 O   0  0  0  0  0  0  0  0  0  0  0  0
    2.0932   -3.1606    4.5021 N   0  0  0  0  0  0  0  0  0  0  0  0
    0.7725   -2.5361    4.3936 C   0  0  2  0  0  0  0  0  0  0  0  0
    0.4547   -1.7253    5.6660 C   0  0  0  0  0  0  0  0  0  0  0  0
   -0.4780   -0.5594    5.4335 C   0  0  0  0  0  0  0  0  0  0  0  0
   -0.1040    0.4881    4.5792 C   0  0  0  0  0  0  0  0  0  0  0  0
   -0.9576    1.5701    4.3681 C   0  0  0  0  0  0  0  0  0  0  0  0
   -2.1878    1.6228    5.0190 C   0  0  0  0  0  0  0  0  0  0  0  0
   -2.5637    0.5958    5.8826 C   0  0  0  0  0  0  0  0  0  0  0  0
   -1.7129   -0.4908    6.0912 C   0  0  0  0  0  0  0  0  0  0  0  0
   -0.2649   -3.6520    4.1678 C   0  0  0  0  0  0  0  0  0  0  0  0
    0.0423   -4.8439    4.1293 O   0  0  0  0  0  0  0  0  0  0  0  0
   -1.5568   -3.2307    3.9711 N   0  0  0  0  0  0  0  0  0  0  0  0
   -2.6845   -4.1567    3.8693 C   0  0  1  0  0  0  0  0  0  0  0  0
   -3.9750   -3.4948    4.3951 C   0  0  0  0  0  0  0  0  0  0  0  0
   -4.4027   -2.2526    3.5858 C   0  0  0  0  0  0  0  0  0  0  0  0
   -5.8990   -2.2158    3.2613 C   0  0  0  0  0  0  0  0  0  0  0  0
   -6.2462   -3.2637    2.3166 N   0  0  0  0  0  0  0  0  0  0  0  0
   -7.0948   -3.1416    1.2795 C   0  0  0  0  0  0  0  0  0  0  0  0
   -7.9876   -2.2389    1.0865 N   0  0  0  0  0  0  0  0  0  0  0  0
   -6.9292   -4.1179    0.3675 N   0  0  0  0  0  0  0  0  0  0  0  0
   -2.9141   -4.7142    2.4428 C   0  0  0  0  0  0  0  0  0  0  0  0
   -4.0461   -4.9052    1.9915 O   0  0  0  0  0  0  0  0  0  0  0  0
   -1.7930   -5.0401    1.7257 N   0  0  0  0  0  0  0  0  0  0  0  0
   -1.7926   -5.4899    0.3173 C   0  0  1  0  0  0  0  0  0  0  0  0
   -2.7463   -6.6681    0.0598 C   0  0  0  0  0  0  0  0  0  0  0  0
   -2.4040   -7.4578   -1.1678 C   0  0  0  0  0  0  0  0  0  0  0  0
   -1.4843   -8.4858   -1.2479 C   0  0  0  0  0  0  0  0  0  0  0  0
   -1.4696   -8.9502   -2.5354 N   0  0  0  0  0  0  0  0  0  0  0  0
   -2.3725   -8.2542   -3.3038 C   0  0  0  0  0  0  0  0  0  0  0  0
   -2.6961   -8.3901   -4.6593 C   0  0  0  0  0  0  0  0  0  0  0  0
   -3.6626   -7.5279   -5.1847 C   0  0  0  0  0  0  0  0  0  0  0  0
   -4.2781   -6.5686   -4.3848 C   0  0  0  0  0  0  0  0  0  0  0  0
   -3.9436   -6.4479   -3.0310 C   0  0  0  0  0  0  0  0  0  0  0  0
   -2.9724   -7.3063   -2.4745 C   0  0  0  0  0  0  0  0  0  0  0  0
   -2.0815   -4.3078   -0.6428 C   0  0  0  0  0  0  0  0  0  0  0  0
   -1.4634   -4.1467   -1.6936 O   0  0  0  0  0  0  0  0  0  0  0  0
   -3.1402   -3.5025   -0.2810 N   0  0  0  0  0  0  0  0  0  0  0  0
   -3.5653   -2.3847   -1.0910 C   0  0  0  0  0  0  0  0  0  0  0  0
   -2.5830   -1.2042   -1.0518 C   0  0  0  0  0  0  0  0  0  0  0  0
   -1.5662   -1.1696   -0.3625 O   0  0  0  0  0  0  0  0  0  0  0  0
   -2.9602   -0.1616   -1.8751 N   0  0  0  0  0  0  0  0  0  0  0  0
   -2.0313    0.8803   -2.2925 C   0  0  1  0  0  0  0  0  0  0  0  0
   -1.5965    0.6101   -3.7445 C   0  0  0  0  0  0  0  0  0  0  0  0
   -0.6685   -0.5980   -3.8941 C   0  0  0  0  0  0  0  0  0  0  0  0
   -0.1765   -0.7107   -5.3391 C   0  0  0  0  0  0  0  0  0  0  0  0
    0.8853   -1.7950   -5.4907 C   0  0  0  0  0  0  0  0  0  0  0  0
    1.5011   -1.7032   -6.8177 N   0  0  0  0  0  0  0  0  0  0  0  0
   -2.6437    2.3019   -2.1763 C   0  0  0  0  0  0  0  0  0  0  0  0
   -2.7062    3.0572   -3.1523 O   0  0  0  0  0  0  0  0  0  0  0  0
   -3.0599    2.7491   -0.9365 N   0  0  0  0  0  0  0  0  0  0  0  0
   -3.3380    4.1647   -0.7346 C   0  0  0  0  0  0  0  0  0  0  0  0
   -3.7073    4.2958    0.7331 C   0  0  0  0  0  0  0  0  0  0  0  0
   -2.9575    3.1406    1.3870 C   0  0  0  0  0  0  0  0  0  0  0  0
   -3.0284    2.0228    0.3446 C   0  0  1  0  0  0  0  0  0  0  0  0
   -4.3153    1.1866    0.5640 C   0  0  0  0  0  0  0  0  0  0  0  0
   -4.4076    0.3261    1.4367 O   0  0  0  0  0  0  0  0  0  0  0  0
   -5.3868    1.5797   -0.2137 N   0  0  0  0  0  0  0  0  0  0  0  0
   -6.6391    0.8244   -0.2683 C   0  0  1  0  0  0  0  0  0  0  0  0
   -7.8342    1.7983   -0.3807 C   0  0  0  0  0  0  0  0  0  0  0  0
   -7.9314    2.4872   -1.7456 C   0  0  0  0  0  0  0  0  0  0  0  0
   -9.1679    1.1339   -0.0313 C   0  0  0  0  0  0  0  0  0  0  0  0
   -6.5319   -0.1782   -1.4405 C   0  0  0  0  0  0  0  0  0  0  0  0
   -5.6816   -0.1008   -2.3297 O   0  0  0  0  0  0  0  0  0  0  0  0
   -7.4564   -1.1786   -1.4678 N   0  0  0  0  0  0  0  0  0  0  0  0
    3.0581    2.5212    0.5315 N   0  0  0  0  0  0  0  0  0  0  0  0
    2.0195    3.4109    0.6318 C   0  0  0  0  0  0  0  0  0  0  0  0
    1.1321    3.3017    1.4810 O   0  0  0  0  0  0  0  0  0  0  0  0
    2.0998    4.6294   -0.3134 C   0  0  2  0  0  0  0  0  0  0  0  0
    0.6690    5.0513   -0.6845 C   0  0  0  0  0  0  0  0  0  0  0  0
   -0.0232    5.6396    0.4209 O   0  0  0  0  0  0  0  0  0  0  0  0
    2.9019    4.3369   -1.5041 N   0  0  0  0  0  0  0  0  0  0  0  0
    4.2128    4.7338   -1.6354 C   0  0  0  0  0  0  0  0  0  0  0  0
    4.7757    5.4083   -0.7743 O   0  0  0  0  0  0  0  0  0  0  0  0
    4.9577    4.2296   -2.8957 C   0  0  2  0  0  0  0  0  0  0  0  0
    5.7582    5.3757   -3.5444 C   0  0  0  0  0  0  0  0  0  0  0  0
    4.9015    6.3815   -4.2880 C   0  0  0  0  0  0  0  0  0  0  0  0
    4.7214    6.2699   -5.6760 C   0  0  0  0  0  0  0  0  0  0  0  0
    3.9000    7.1677   -6.3611 C   0  0  0  0  0  0  0  0  0  0  0  0
    3.2574    8.1795   -5.6565 C   0  0  0  0  0  0  0  0  0  0  0  0
    3.4265    8.3086   -4.2837 C   0  0  0  0  0  0  0  0  0  0  0  0
    4.2503    7.4139   -3.5993 C   0  0  0  0  0  0  0  0  0  0  0  0
    2.4446    9.0761   -6.2841 O   0  0  0  0  0  0  0  0  0  0  0  0
    4.0852    3.5700   -3.8681 N   0  0  0  0  0  0  0  0  0  0  0  0
    3.8903    2.2082   -3.9105 C   0  0  0  0  0  0  0  0  0  0  0  0
    4.5701    1.4173   -3.2641 O   0  0  0  0  0  0  0  0  0  0  0  0
    2.8278    1.7431   -4.9229 C   0  0  2  0  0  0  0  0  0  0  0  0
    3.5495    1.1848   -6.1527 C   0  0  0  0  0  0  0  0  0  0  0  0
    2.6075    0.9018   -7.1932 O   0  0  0  0  0  0  0  0  0  0  0  0
    1.9115    2.8253   -5.3311 N   0  0  0  0  0  0  0  0  0  0  0  0
    0.9868    3.3120   -4.4348 C   0  0  0  0  0  0  0  0  0  0  0  0
    1.0565    3.0840   -3.2303 O   0  0  0  0  0  0  0  0  0  0  0  0
   -0.0735    4.1785   -5.0539 C   0  0  0  0  0  0  0  0  0  0  0  0
    3.0731   -1.0344   -2.9646 H   0  0  0  0  0  0  0  0  0  0  0  0
    2.1311   -2.3585   -2.2472 H   0  0  0  0  0  0  0  0  0  0  0  0
    3.8889   -2.5065   -2.4150 H   0  0  0  0  0  0  0  0  0  0  0  0
    4.2365   -0.6806   -0.8123 H   0  0  0  0  0  0  0  0  0  0  0  0
    3.3171   -1.9939   -0.0707 H   0  0  0  0  0  0  0  0  0  0  0  0
    2.1619    0.6367   -1.1601 H   0  0  0  0  0  0  0  0  0  0  0  0
    1.1882   -0.7280   -0.6454 H   0  0  0  0  0  0  0  0  0  0  0  0
    2.2636   -0.6192    1.6403 H   0  0  0  0  0  0  0  0  0  0  0  0
    1.1566    0.6577    1.2012 H   0  0  0  0  0  0  0  0  0  0  0  0
    3.0220    1.6402    2.3965 H   0  0  0  0  0  0  0  0  0  0  0  0
    4.2141   -0.5704    2.6853 H   0  0  0  0  0  0  0  0  0  0  0  0
    6.2616   -1.1899    0.8318 H   0  0  0  0  0  0  0  0  0  0  0  0
    7.3989   -0.2950    3.5590 H   0  0  0  0  0  0  0  0  0  0  0  0
    7.4634    0.7190    2.1336 H   0  0  0  0  0  0  0  0  0  0  0  0
    8.6980   -2.0935    2.2779 H   0  0  0  0  0  0  0  0  0  0  0  0
    9.5789   -0.6054    2.5764 H   0  0  0  0  0  0  0  0  0  0  0  0
    9.4183    0.3636   -0.7432 H   0  0  0  0  0  0  0  0  0  0  0  0
    5.4606   -1.2906    4.2679 H   0  0  0  0  0  0  0  0  0  0  0  0
    4.5541   -4.0992    3.9255 H   0  0  0  0  0  0  0  0  0  0  0  0
    4.6949   -2.5425    6.5854 H   0  0  0  0  0  0  0  0  0  0  0  0
    5.9577   -3.6646    6.1085 H   0  0  0  0  0  0  0  0  0  0  0  0
    2.5465   -3.7912    7.9113 H   0  0  0  0  0  0  0  0  0  0  0  0
    3.4252   -7.7369    6.8622 H   0  0  0  0  0  0  0  0  0  0  0  0
    5.1083   -6.2583    5.6676 H   0  0  0  0  0  0  0  0  0  0  0  0
    2.1199   -4.1599    4.6996 H   0  0  0  0  0  0  0  0  0  0  0  0
    0.7851   -1.9099    3.4937 H   0  0  0  0  0  0  0  0  0  0  0  0
    0.0411   -2.3907    6.4356 H   0  0  0  0  0  0  0  0  0  0  0  0
    1.3717   -1.3106    6.1052 H   0  0  0  0  0  0  0  0  0  0  0  0
    0.8623    0.4791    4.0773 H   0  0  0  0  0  0  0  0  0  0  0  0
   -0.6529    2.3753    3.7024 H   0  0  0  0  0  0  0  0  0  0  0  0
   -2.8494    2.4704    4.8609 H   0  0  0  0  0  0  0  0  0  0  0  0
   -3.5194    0.6454    6.3980 H   0  0  0  0  0  0  0  0  0  0  0  0
   -2.0206   -1.2782    6.7759 H   0  0  0  0  0  0  0  0  0  0  0  0
   -1.7070   -2.2622    3.6978 H   0  0  0  0  0  0  0  0  0  0  0  0
   -2.4636   -5.0263    4.5015 H   0  0  0  0  0  0  0  0  0  0  0  0
   -4.7780   -4.2417    4.4122 H   0  0  0  0  0  0  0  0  0  0  0  0
   -3.8219   -3.1917    5.4390 H   0  0  0  0  0  0  0  0  0  0  0  0
   -3.8377   -2.1728    2.6496 H   0  0  0  0  0  0  0  0  0  0  0  0
   -4.1557   -1.3589    4.1699 H   0  0  0  0  0  0  0  0  0  0  0  0
   -6.4912   -2.3387    4.1744 H   0  0  0  0  0  0  0  0  0  0  0  0
   -6.1336   -1.2297    2.8472 H   0  0  0  0  0  0  0  0  0  0  0  0
   -5.4994   -3.9435    2.1583 H   0  0  0  0  0  0  0  0  0  0  0  0
   -7.9935   -1.6314    1.9120 H   0  0  0  0  0  0  0  0  0  0  0  0
   -6.7367   -5.0236    0.7811 H   0  0  0  0  0  0  0  0  0  0  0  0
   -7.7332   -4.1726   -0.2483 H   0  0  0  0  0  0  0  0  0  0  0  0
   -0.8945   -4.9754    2.1960 H   0  0  0  0  0  0  0  0  0  0  0  0
   -0.7552   -5.7961    0.1306 H   0  0  0  0  0  0  0  0  0  0  0  0
   -2.7215   -7.3518    0.9192 H   0  0  0  0  0  0  0  0  0  0  0  0
   -3.7841   -6.3243   -0.0238 H   0  0  0  0  0  0  0  0  0  0  0  0
   -0.8383   -8.9245   -0.4991 H   0  0  0  0  0  0  0  0  0  0  0  0
   -0.8837   -9.6979   -2.8792 H   0  0  0  0  0  0  0  0  0  0  0  0
   -2.2149   -9.1335   -5.2860 H   0  0  0  0  0  0  0  0  0  0  0  0
   -3.9336   -7.6054   -6.2350 H   0  0  0  0  0  0  0  0  0  0  0  0
   -5.0217   -5.9027   -4.8146 H   0  0  0  0  0  0  0  0  0  0  0  0
   -4.4244   -5.6899   -2.4206 H   0  0  0  0  0  0  0  0  0  0  0  0
   -3.7872   -3.8495    0.4192 H   0  0  0  0  0  0  0  0  0  0  0  0
   -3.6871   -2.7203   -2.1260 H   0  0  0  0  0  0  0  0  0  0  0  0
   -4.5268   -2.0519   -0.6933 H   0  0  0  0  0  0  0  0  0  0  0  0
   -3.8715   -0.2044   -2.3386 H   0  0  0  0  0  0  0  0  0  0  0  0
   -1.1402    0.8701   -1.6533 H   0  0  0  0  0  0  0  0  0  0  0  0
   -1.0729    1.4877   -4.1339 H   0  0  0  0  0  0  0  0  0  0  0  0
   -2.4810    0.4728   -4.3809 H   0  0  0  0  0  0  0  0  0  0  0  0
   -1.1862   -1.5209   -3.6105 H   0  0  0  0  0  0  0  0  0  0  0  0
    0.1888   -0.4810   -3.2207 H   0  0  0  0  0  0  0  0  0  0  0  0
   -1.0240   -0.9231   -6.0029 H   0  0  0  0  0  0  0  0  0  0  0  0
    0.2331    0.2557   -5.6550 H   0  0  0  0  0  0  0  0  0  0  0  0
    1.6711   -1.6687   -4.7426 H   0  0  0  0  0  0  0  0  0  0  0  0
    0.4422   -2.7869   -5.3512 H   0  0  0  0  0  0  0  0  0  0  0  0
    0.7759   -1.8746   -7.5197 H   0  0  0  0  0  0  0  0  0  0  0  0
    2.1468   -2.4913   -6.9185 H   0  0  0  0  0  0  0  0  0  0  0  0
   -2.4302    4.7301   -0.9698 H   0  0  0  0  0  0  0  0  0  0  0  0
   -4.1395    4.4955   -1.4025 H   0  0  0  0  0  0  0  0  0  0  0  0
   -4.7877    4.1665    0.8659 H   0  0  0  0  0  0  0  0  0  0  0  0
   -3.4323    5.2694    1.1485 H   0  0  0  0  0  0  0  0  0  0  0  0
   -1.9122    3.4309    1.5463 H   0  0  0  0  0  0  0  0  0  0  0  0
   -3.3899    2.8685    2.3537 H   0  0  0  0  0  0  0  0  0  0  0  0
   -2.1611    1.3612    0.3981 H   0  0  0  0  0  0  0  0  0  0  0  0
   -5.1238    2.0776   -1.0598 H   0  0  0  0  0  0  0  0  0  0  0  0
   -6.7212    0.2479    0.6596 H   0  0  0  0  0  0  0  0  0  0  0  0
   -7.6789    2.5900    0.3661 H   0  0  0  0  0  0  0  0  0  0  0  0
   -7.0041    3.0126   -1.9944 H   0  0  0  0  0  0  0  0  0  0  0  0
   -8.1451    1.7719   -2.5465 H   0  0  0  0  0  0  0  0  0  0  0  0
   -8.7373    3.2294   -1.7426 H   0  0  0  0  0  0  0  0  0  0  0  0
   -9.1107    0.6254    0.9365 H   0  0  0  0  0  0  0  0  0  0  0  0
   -9.9612    1.8865    0.0387 H   0  0  0  0  0  0  0  0  0  0  0  0
   -9.4760    0.4063   -0.7874 H   0  0  0  0  0  0  0  0  0  0  0  0
   -7.3000   -1.9030   -2.1546 H   0  0  0  0  0  0  0  0  0  0  0  0
   -7.8199   -1.5246   -0.5704 H   0  0  0  0  0  0  0  0  0  0  0  0
    3.8162    2.7108   -0.1191 H   0  0  0  0  0  0  0  0  0  0  0  0
    2.5785    5.4298    0.2631 H   0  0  0  0  0  0  0  0  0  0  0  0
    0.0771    4.1991   -1.0348 H   0  0  0  0  0  0  0  0  0  0  0  0
    0.6872    5.7965   -1.4867 H   0  0  0  0  0  0  0  0  0  0  0  0
    0.0234    4.9849    1.1488 H   0  0  0  0  0  0  0  0  0  0  0  0
    2.5076    3.6768   -2.1743 H   0  0  0  0  0  0  0  0  0  0  0  0
    5.6721    3.4849   -2.5220 H   0  0  0  0  0  0  0  0  0  0  0  0
    6.4810    4.9460   -4.2510 H   0  0  0  0  0  0  0  0  0  0  0  0
    6.3594    5.9061   -2.7951 H   0  0  0  0  0  0  0  0  0  0  0  0
    5.2200    5.4780   -6.2317 H   0  0  0  0  0  0  0  0  0  0  0  0
    3.7761    7.0623   -7.4341 H   0  0  0  0  0  0  0  0  0  0  0  0
    2.9219    9.1062   -3.7454 H   0  0  0  0  0  0  0  0  0  0  0  0
    4.3786    7.5322   -2.5243 H   0  0  0  0  0  0  0  0  0  0  0  0
    2.4680    8.9018   -7.2389 H   0  0  0  0  0  0  0  0  0  0  0  0
    3.3923    4.1437   -4.3384 H   0  0  0  0  0  0  0  0  0  0  0  0
    2.2156    0.9703   -4.4463 H   0  0  0  0  0  0  0  0  0  0  0  0
    4.1124    0.2753   -5.9164 H   0  0  0  0  0  0  0  0  0  0  0  0
    4.2574    1.9192   -6.5530 H   0  0  0  0  0  0  0  0  0  0  0  0
    2.2522   -0.0046   -7.0248 H   0  0  0  0  0  0  0  0  0  0  0  0
    1.5956    2.7405   -6.2949 H   0  0  0  0  0  0  0  0  0  0  0  0
   -0.8333    3.5491   -5.5236 H   0  0  0  0  0  0  0  0  0  0  0  0
   -0.5385    4.7934   -4.2783 H   0  0  0  0  0  0  0  0  0  0  0  0
    0.3678    4.8431   -5.8021 H   0  0  0  0  0  0  0  0  0  0  0  0
  1  2  1  0
  2  3  1  0
  3  4  1  0
  4  5  1  0
  5  6  1  0
  6  7  2  0
  6  8  1  0
  8  9  1  0
  9 10  1  0
 10 11  1  0
 11 12  1  0
 12 13  2  0
 12 14  1  0
  9 15  1  0
 15 16  2  0
 15 17  1  0
 17 18  1  0
 18 19  1  0
 19 20  1  0
 20 21  2  0
 21 22  1  0
 22 23  2  0
 23 24  1  0
 18 25  1  0
 25 26  2  0
 25 27  1  0
 27 28  1  0
 28 29  1  0
 29 30  1  0
 30 31  2  0
 31 32  1  0
 32 33  2  0
 33 34  1  0
 34 35  2  0
 28 36  1  0
 36 37  2  0
 36 38  1  0
 38 39  1  0
 39 40  1  0
 40 41  1  0
 41 42  1  0
 42 43  1  0
 43 44  1  0
 44 45  2  3
 44 46  1  0
 39 47  1  0
 47 48  2  0
 47 49  1  0
 49 50  1  0
 50 51  1  0
 51 52  1  0
 52 53  2  0
 53 54  1  0
 54 55  1  0
 55 56  2  0
 56 57  1  0
 57 58  2  0
 58 59  1  0
 59 60  2  0
 50 61  1  0
 61 62  2  0
 61 63  1  0
 63 64  1  0
 64 65  1  0
 65 66  2  0
 65 67  1  0
 67 68  1  0
 68 69  1  0
 69 70  1  0
 70 71  1  0
 71 72  1  0
 72 73  1  0
 68 74  1  0
 74 75  2  0
 74 76  1  0
 76 77  1  0
 77 78  1  0
 78 79  1  0
 79 80  1  0
 80 81  1  0
 81 82  2  0
 81 83  1  0
 83 84  1  0
 84 85  1  0
 85 86  1  0
 85 87  1  0
 84 88  1  0
 88 89  2  0
 88 90  1  0
  5 91  1  0
 91 92  1  0
 92 93  2  0
 92 94  1  0
 94 95  1  0
 95 96  1  0
 94 97  1  0
 97 98  1  0
 98 99  2  0
 98100  1  0
100101  1  0
101102  1  0
102103  1  0
103104  2  0
104105  1  0
105106  2  0
106107  1  0
105108  1  0
100109  1  0
109110  1  0
110111  2  0
110112  1  0
112113  1  0
113114  1  0
112115  1  0
115116  1  0
116117  2  0
116118  1  0
 24 20  1  0
 35 30  1  0
 60 52  1  0
 60 55  1  0
 80 76  1  0
107102  2  0
  1119  1  0
  1120  1  0
  1121  1  0
  2122  1  0
  2123  1  0
  3124  1  0
  3125  1  0
  4126  1  0
  4127  1  0
  5128  1  1
  8129  1  0
  9130  1  6
 10131  1  0
 10132  1  0
 11133  1  0
 11134  1  0
 14135  1  0
 17136  1  0
 18137  1  6
 19138  1  0
 19139  1  0
 21140  1  0
 23141  1  0
 24142  1  0
 27143  1  0
 28144  1  6
 29145  1  0
 29146  1  0
 31147  1  0
 32148  1  0
 33149  1  0
 34150  1  0
 35151  1  0
 38152  1  0
 39153  1  1
 40154  1  0
 40155  1  0
 41156  1  0
 41157  1  0
 42158  1  0
 42159  1  0
 43160  1  0
 45161  1  0
 46162  1  0
 46163  1  0
 49164  1  0
 50165  1  6
 51166  1  0
 51167  1  0
 53168  1  0
 54169  1  0
 56170  1  0
 57171  1  0
 58172  1  0
 59173  1  0
 63174  1  0
 64175  1  0
 64176  1  0
 67177  1  0
 68178  1  1
 69179  1  0
 69180  1  0
 70181  1  0
 70182  1  0
 71183  1  0
 71184  1  0
 72185  1  0
 72186  1  0
 73187  1  0
 73188  1  0
 77189  1  0
 77190  1  0
 78191  1  0
 78192  1  0
 79193  1  0
 79194  1  0
 80195  1  6
 83196  1  0
 84197  1  1
 85198  1  0
 86199  1  0
 86200  1  0
 86201  1  0
 87202  1  0
 87203  1  0
 87204  1  0
 90205  1  0
 90206  1  0
 91207  1  0
 94208  1  1
 95209  1  0
 95210  1  0
 96211  1  0
 97212  1  0
100213  1  1
101214  1  0
101215  1  0
103216  1  0
104217  1  0
106218  1  0
107219  1  0
108220  1  0
109221  1  0
112222  1  1
113223  1  0
113224  1  0
114225  1  0
115226  1  0
118227  1  0
118228  1  0
118229  1  0
M  END
