
     RDKit          3D

143147  0  0  0  0  0  0  0  0999 V2000
    0.6772   -2.2503   -5.9372 C   0  0  0  0  0  0  0  0  0  0  0  0
    2.1953   -2.3361   -5.9659 C   0  0  0  0  0  0  0  0  0  0  0  0
    2.7807   -3.1914   -4.8400 C   0  0  0  0  0  0  0  0  0  0  0  0
    2.4530   -2.7287   -3.4158 C   0  0  0  0  0  0  0  0  0  0  0  0
    2.8966   -1.2978   -3.0772 C   0  0  1  0  0  0  0  0  0  0  0  0
    2.4215   -0.9064   -1.6594 C   0  0  0  0  0  0  0  0  0  0  0  0
    1.4571   -0.1613   -1.4711 O   0  0  0  0  0  0  0  0  0  0  0  0
    3.1004   -1.4840   -0.6136 N   0  0  0  0  0  0  0  0  0  0  0  0
    2.6616   -1.4171    0.7866 C   0  0  1  0  0  0  0  0  0  0  0  0
    3.2700   -2.5661    1.5877 C   0  0  0  0  0  0  0  0  0  0  0  0
    2.4295   -2.8913    2.8032 C   0  0  0  0  0  0  0  0  0  0  0  0
    1.7341   -3.9013    2.8542 O   0  0  0  0  0  0  0  0  0  0  0  0
    2.5034   -1.9714    3.8199 N   0  0  0  0  0  0  0  0  0  0  0  0
    1.8716   -2.1710    5.1060 C   0  0  0  0  0  0  0  0  0  0  0  0
    0.5787   -1.3743    5.2885 C   0  0  0  0  0  0  0  0  0  0  0  0
   -0.6497   -1.9852    4.6010 C   0  0  0  0  0  0  0  0  0  0  0  0
   -0.8805   -1.4458    3.1877 C   0  0  0  0  0  0  0  0  0  0  0  0
   -2.1029   -2.0780    2.5079 C   0  0  2  0  0  0  0  0  0  0  0  0
   -2.1642   -1.6347    1.1145 N   0  0  0  0  0  0  0  0  0  0  0  0
   -2.9351   -2.2950    0.1729 C   0  0  0  0  0  0  0  0  0  0  0  0
   -3.4828   -3.3682    0.4233 O   0  0  0  0  0  0  0  0  0  0  0  0
   -2.9851   -1.6293   -1.2257 C   0  0  1  0  0  0  0  0  0  0  0  0
   -3.1502   -0.1805   -1.0326 N   0  0  0  0  0  0  0  0  0  0  0  0
   -4.3737    0.3682   -0.7151 C   0  0  0  0  0  0  0  0  0  0  0  0
   -5.4256   -0.2393   -0.9049 O   0  0  0  0  0  0  0  0  0  0  0  0
   -4.3138    1.7051    0.0869 C   0  0  1  0  0  0  0  0  0  0  0  0
   -3.1157    2.5312   -0.1179 N   0  0  0  0  0  0  0  0  0  0  0  0
   -1.9238    2.2246    0.4918 C   0  0  0  0  0  0  0  0  0  0  0  0
   -1.6726    1.0715    0.8548 O   0  0  0  0  0  0  0  0  0  0  0  0
   -0.9141    3.3704    0.6543 C   0  0  2  0  0  0  0  0  0  0  0  0
    0.3774    2.7363    0.8865 N   0  0  0  0  0  0  0  0  0  0  0  0
    1.5979    3.3048    0.6287 C   0  0  0  0  0  0  0  0  0  0  0  0
    1.7224    4.4245    0.1398 O   0  0  0  0  0  0  0  0  0  0  0  0
    2.7739    2.4277    1.1110 C   0  0  1  0  0  0  0  0  0  0  0  0
    2.4699    1.0340    0.7815 N   0  0  0  0  0  0  0  0  0  0  0  0
    3.0527   -0.0439    1.3995 C   0  0  0  0  0  0  0  0  0  0  0  0
    3.7479    0.0801    2.4068 O   0  0  0  0  0  0  0  0  0  0  0  0
    4.1269    2.9062    0.5609 C   0  0  0  0  0  0  0  0  0  0  0  0
    4.3074    2.6302   -0.8955 C   0  0  0  0  0  0  0  0  0  0  0  0
    5.0803    1.7081   -1.5618 C   0  0  0  0  0  0  0  0  0  0  0  0
    4.8590    1.7681   -2.9161 N   0  0  0  0  0  0  0  0  0  0  0  0
    4.0081    2.7584   -3.0784 C   0  0  0  0  0  0  0  0  0  0  0  0
    3.6527    3.3209   -1.8847 N   0  0  0  0  0  0  0  0  0  0  0  0
   -1.3205    4.3348    1.7824 C   0  0  0  0  0  0  0  0  0  0  0  0
   -1.1377    3.7708    3.1772 C   0  0  0  0  0  0  0  0  0  0  0  0
   -2.0643    2.8705    3.7193 C   0  0  0  0  0  0  0  0  0  0  0  0
   -1.8544    2.3109    4.9806 C   0  0  0  0  0  0  0  0  0  0  0  0
   -0.7248    2.6541    5.7193 C   0  0  0  0  0  0  0  0  0  0  0  0
    0.1974    3.5584    5.1975 C   0  0  0  0  0  0  0  0  0  0  0  0
   -0.0067    4.1137    3.9331 C   0  0  0  0  0  0  0  0  0  0  0  0
   -5.5995    2.5191   -0.1586 C   0  0  0  0  0  0  0  0  0  0  0  0
   -5.7144    3.7601    0.7421 C   0  0  0  0  0  0  0  0  0  0  0  0
   -5.4155    5.0792    0.0251 C   0  0  0  0  0  0  0  0  0  0  0  0
   -4.0571    5.0624   -0.5290 N   0  0  0  0  0  0  0  0  0  0  0  0
   -3.6485    6.1379   -1.0960 C   0  0  0  0  0  0  0  0  0  0  0  0
   -2.4336    6.1774   -1.6839 N   0  0  0  0  0  0  0  0  0  0  0  0
   -4.2632    7.3311   -1.2454 N   0  0  0  0  0  0  0  0  0  0  0  0
   -1.6855   -1.8910   -1.9937 C   0  0  0  0  0  0  0  0  0  0  0  0
   -1.4985   -3.3089   -2.4299 C   0  0  0  0  0  0  0  0  0  0  0  0
   -2.0089   -3.8877   -3.5754 C   0  0  0  0  0  0  0  0  0  0  0  0
   -1.5829   -5.1874   -3.6262 N   0  0  0  0  0  0  0  0  0  0  0  0
   -0.7892   -5.4720   -2.5406 C   0  0  0  0  0  0  0  0  0  0  0  0
   -0.1305   -6.6569   -2.1907 C   0  0  0  0  0  0  0  0  0  0  0  0
    0.6053   -6.6628   -1.0022 C   0  0  0  0  0  0  0  0  0  0  0  0
    0.6755   -5.5294   -0.1971 C   0  0  0  0  0  0  0  0  0  0  0  0
    0.0152   -4.3522   -0.5650 C   0  0  0  0  0  0  0  0  0  0  0  0
   -0.7316   -4.3172   -1.7606 C   0  0  0  0  0  0  0  0  0  0  0  0
   -3.4268   -1.6291    3.1635 C   0  0  0  0  0  0  0  0  0  0  0  0
   -3.6003   -0.5526    3.7283 O   0  0  0  0  0  0  0  0  0  0  0  0
   -4.4718   -2.4949    2.9757 N   0  0  0  0  0  0  0  0  0  0  0  0
    4.3221   -1.0351   -3.2874 N   0  0  0  0  0  0  0  0  0  0  0  0
    5.3429   -1.7758   -2.7503 C   0  0  0  0  0  0  0  0  0  0  0  0
    5.1647   -2.7175   -1.9825 O   0  0  0  0  0  0  0  0  0  0  0  0
    6.7201   -1.3112   -3.1398 C   0  0  0  0  0  0  0  0  0  0  0  0
    0.2279   -3.2482   -5.9421 H   0  0  0  0  0  0  0  0  0  0  0  0
    0.3148   -1.7119   -6.8188 H   0  0  0  0  0  0  0  0  0  0  0  0
    0.3218   -1.7132   -5.0530 H   0  0  0  0  0  0  0  0  0  0  0  0
    2.6203   -1.3269   -5.9406 H   0  0  0  0  0  0  0  0  0  0  0  0
    2.5005   -2.7741   -6.9240 H   0  0  0  0  0  0  0  0  0  0  0  0
    2.4182   -4.2209   -4.9560 H   0  0  0  0  0  0  0  0  0  0  0  0
    3.8688   -3.2383   -4.9669 H   0  0  0  0  0  0  0  0  0  0  0  0
    2.8951   -3.4461   -2.7145 H   0  0  0  0  0  0  0  0  0  0  0  0
    1.3727   -2.8062   -3.2550 H   0  0  0  0  0  0  0  0  0  0  0  0
    2.3867   -0.5999   -3.7526 H   0  0  0  0  0  0  0  0  0  0  0  0
    3.8530   -2.1325   -0.8607 H   0  0  0  0  0  0  0  0  0  0  0  0
    1.5665   -1.4775    0.7945 H   0  0  0  0  0  0  0  0  0  0  0  0
    3.3109   -3.4783    0.9782 H   0  0  0  0  0  0  0  0  0  0  0  0
    4.3001   -2.3602    1.9012 H   0  0  0  0  0  0  0  0  0  0  0  0
    3.1237   -1.1678    3.7114 H   0  0  0  0  0  0  0  0  0  0  0  0
    1.7000   -3.2388    5.2802 H   0  0  0  0  0  0  0  0  0  0  0  0
    2.6017   -1.8338    5.8505 H   0  0  0  0  0  0  0  0  0  0  0  0
    0.7194   -0.3314    4.9810 H   0  0  0  0  0  0  0  0  0  0  0  0
    0.3680   -1.3571    6.3659 H   0  0  0  0  0  0  0  0  0  0  0  0
   -0.5768   -3.0788    4.5856 H   0  0  0  0  0  0  0  0  0  0  0  0
   -1.5279   -1.7409    5.2113 H   0  0  0  0  0  0  0  0  0  0  0  0
    0.0013   -1.6371    2.5708 H   0  0  0  0  0  0  0  0  0  0  0  0
   -0.9910   -0.3549    3.2296 H   0  0  0  0  0  0  0  0  0  0  0  0
   -2.0335   -3.1719    2.5313 H   0  0  0  0  0  0  0  0  0  0  0  0
   -2.0147   -0.6364    0.9775 H   0  0  0  0  0  0  0  0  0  0  0  0
   -3.8610   -2.0160   -1.7588 H   0  0  0  0  0  0  0  0  0  0  0  0
   -2.3408    0.3164   -0.6801 H   0  0  0  0  0  0  0  0  0  0  0  0
   -4.2993    1.3954    1.1417 H   0  0  0  0  0  0  0  0  0  0  0  0
   -3.3080    3.5231   -0.2898 H   0  0  0  0  0  0  0  0  0  0  0  0
   -0.8589    3.9150   -0.2948 H   0  0  0  0  0  0  0  0  0  0  0  0
    0.3606    1.8426    1.3759 H   0  0  0  0  0  0  0  0  0  0  0  0
    2.7994    2.5155    2.2050 H   0  0  0  0  0  0  0  0  0  0  0  0
    2.0008    0.8538   -0.1093 H   0  0  0  0  0  0  0  0  0  0  0  0
    4.9314    2.3987    1.1089 H   0  0  0  0  0  0  0  0  0  0  0  0
    4.2564    3.9795    0.7469 H   0  0  0  0  0  0  0  0  0  0  0  0
    5.7590    0.9844   -1.1282 H   0  0  0  0  0  0  0  0  0  0  0  0
    3.6136    3.1113   -4.0222 H   0  0  0  0  0  0  0  0  0  0  0  0
    2.9981    4.0842   -1.7465 H   0  0  0  0  0  0  0  0  0  0  0  0
   -0.7228    5.2517    1.6955 H   0  0  0  0  0  0  0  0  0  0  0  0
   -2.3642    4.6506    1.6702 H   0  0  0  0  0  0  0  0  0  0  0  0
   -2.9540    2.5766    3.1672 H   0  0  0  0  0  0  0  0  0  0  0  0
   -2.5731    1.5964    5.3777 H   0  0  0  0  0  0  0  0  0  0  0  0
   -0.5651    2.2149    6.7003 H   0  0  0  0  0  0  0  0  0  0  0  0
    1.0778    3.8286    5.7745 H   0  0  0  0  0  0  0  0  0  0  0  0
    0.7279    4.8119    3.5376 H   0  0  0  0  0  0  0  0  0  0  0  0
   -6.4636    1.8756    0.0515 H   0  0  0  0  0  0  0  0  0  0  0  0
   -5.6779    2.7962   -1.2174 H   0  0  0  0  0  0  0  0  0  0  0  0
   -5.0715    3.6599    1.6249 H   0  0  0  0  0  0  0  0  0  0  0  0
   -6.7441    3.8194    1.1170 H   0  0  0  0  0  0  0  0  0  0  0  0
   -5.5246    5.8909    0.7543 H   0  0  0  0  0  0  0  0  0  0  0  0
   -6.1488    5.2296   -0.7765 H   0  0  0  0  0  0  0  0  0  0  0  0
   -2.0579    5.2486   -1.8347 H   0  0  0  0  0  0  0  0  0  0  0  0
   -2.4440    6.6935   -2.5569 H   0  0  0  0  0  0  0  0  0  0  0  0
   -5.0843    7.4698   -0.6697 H   0  0  0  0  0  0  0  0  0  0  0  0
   -3.6279    8.1161   -1.1510 H   0  0  0  0  0  0  0  0  0  0  0  0
   -0.8226   -1.5820   -1.3909 H   0  0  0  0  0  0  0  0  0  0  0  0
   -1.6605   -1.2520   -2.8873 H   0  0  0  0  0  0  0  0  0  0  0  0
   -2.6370   -3.4846   -4.3588 H   0  0  0  0  0  0  0  0  0  0  0  0
   -1.8122   -5.8488   -4.3545 H   0  0  0  0  0  0  0  0  0  0  0  0
   -0.1908   -7.5451   -2.8104 H   0  0  0  0  0  0  0  0  0  0  0  0
    1.1226   -7.5690   -0.6960 H   0  0  0  0  0  0  0  0  0  0  0  0
    1.2381   -5.5581    0.7339 H   0  0  0  0  0  0  0  0  0  0  0  0
    0.0704   -3.4826    0.0818 H   0  0  0  0  0  0  0  0  0  0  0  0
   -4.4192   -3.1292    2.1762 H   0  0  0  0  0  0  0  0  0  0  0  0
   -5.3910   -2.1492    3.2130 H   0  0  0  0  0  0  0  0  0  0  0  0
    4.5551   -0.0634   -3.5073 H   0  0  0  0  0  0  0  0  0  0  0  0
    6.6838   -0.5757   -3.9482 H   0  0  0  0  0  0  0  0  0  0  0  0
    7.3013   -2.1708   -3.4848 H   0  0  0  0  0  0  0  0  0  0  0  0
    7.2070   -0.8615   -2.2708 H   0  0  0  0  0  0  0  0  0  0  0  0
  1  2  1  0
  2  3  1  0
  3  4  1  0
  4  5  1  0
  5  6  1  0
  6  7  2  0
  6  8  1  0
  8  9  1  0
  9 10  1  0
 10 11  1  0
 11 12  2  0
 11 13  1  0
 13 14  1  0
 14 15  1  0
 15 16  1  0
 16 17  1  0
 17 18  1  0
 18 19  1  0
 19 20  1  0
 20 21  2  0
 20 22  1  0
 22 23  1  0
 23 24  1  0
 24 25  2  0
 24 26  1  0
 26 27  1  0
 27 28  1  0
 28 29  2  0
 28 30  1  0
 30 31  1  0
 31 32  1  0
 32 33  2  0
 32 34  1  0
 34 35  1  0
 35 36  1  0
 36 37  2  0
 34 38  1  0
 38 39  1  0
 39 40  2  0
 40 41  1  0
 41 42  2  0
 42 43  1  0
 30 44  1  0
 44 45  1  0
 45 46  2  0
 46 47  1  0
 47 48  2  0
 48 49  1  0
 49 50  2  0
 26 51  1  0
 51 52  1  0
 52 53  1  0
 53 54  1  0
 54 55  2  3
 55 56  1  0
 55 57  1  0
 22 58  1  0
 58 59  1  0
 59 60  2  0
 60 61  1  0
 61 62  1  0
 62 63  2  0
 63 64  1  0
 64 65  2  0
 65 66  1  0
 66 67  2  0
 18 68  1  0
 68 69  2  0
 68 70  1  0
  5 71  1  0
 71 72  1  0
 72 73  2  0
 72 74  1  0
 36  9  1  0
 43 39  1  0
 50 45  1  0
 67 59  1  0
 67 62  1  0
  1 75  1  0
  1 76  1  0
  1 77  1  0
  2 78  1  0
  2 79  1  0
  3 80  1  0
  3 81  1  0
  4 82  1  0
  4 83  1  0
  5 84  1  6
  8 85  1  0
  9 86  1  6
 10 87  1  0
 10 88  1  0
 13 89  1  0
 14 90  1  0
 14 91  1  0
 15 92  1  0
 15 93  1  0
 16 94  1  0
 16 95  1  0
 17 96  1  0
 17 97  1  0
 18 98  1  6
 19 99  1  0
 22100  1  6
 23101  1  0
 26102  1  1
 27103  1  0
 30104  1  6
 31105  1  0
 34106  1  1
 35107  1  0
 38108  1  0
 38109  1  0
 40110  1  0
 42111  1  0
 43112  1  0
 44113  1  0
 44114  1  0
 46115  1  0
 47116  1  0
 48117  1  0
 49118  1  0
 50119  1  0
 51120  1  0
 51121  1  0
 52122  1  0
 52123  1  0
 53124  1  0
 53125  1  0
 56126  1  0
 56127  1  0
 57128  1  0
 57129  1  0
 58130  1  0
 58131  1  0
 60132  1  0
 61133  1  0
 63134  1  0
 64135  1  0
 65136  1  0
 66137  1  0
 70138  1  0
 70139  1  0
 71140  1  0
 74141  1  0
 74142  1  0
 74143  1  0
M  END
