
     RDKit          3D

142146  0  0  0  0  0  0  0  0999 V2000
    5.1845   -4.9556    2.5073 C   0  0  0  0  0  0  0  0  0  0  0  0
    6.6127   -4.7624    2.0205 C   0  0  0  0  0  0  0  0  0  0  0  0
    7.1642   -3.3576    2.2787 C   0  0  0  0  0  0  0  0  0  0  0  0
    6.3757   -2.2097    1.6341 C   0  0  0  0  0  0  0  0  0  0  0  0
    6.2333   -2.2991    0.1046 C   0  0  1  0  0  0  0  0  0  0  0  0
    5.4447   -1.1242   -0.5335 C   0  0  0  0  0  0  0  0  0  0  0  0
    5.7525   -0.6255   -1.6175 O   0  0  0  0  0  0  0  0  0  0  0  0
    4.2972   -0.7596    0.1287 N   0  0  0  0  0  0  0  0  0  0  0  0
    3.3173    0.1388   -0.4629 C   0  0  1  0  0  0  0  0  0  0  0  0
    2.5382   -0.4711   -1.6345 C   0  0  0  0  0  0  0  0  0  0  0  0
    1.9816   -1.8562   -1.3500 C   0  0  0  0  0  0  0  0  0  0  0  0
    2.3303   -2.5584   -0.4064 O   0  0  0  0  0  0  0  0  0  0  0  0
    1.0866   -2.2847   -2.3096 N   0  0  0  0  0  0  0  0  0  0  0  0
    0.4774   -3.5988   -2.2314 C   0  0  0  0  0  0  0  0  0  0  0  0
   -0.3207   -3.9089   -3.4941 C   0  0  0  0  0  0  0  0  0  0  0  0
   -0.8047   -5.3578   -3.5868 C   0  0  0  0  0  0  0  0  0  0  0  0
   -1.7616   -5.8457   -2.4902 C   0  0  0  0  0  0  0  0  0  0  0  0
   -3.0693   -5.0423   -2.3982 C   0  0  2  0  0  0  0  0  0  0  0  0
   -2.8768   -3.8939   -1.5133 N   0  0  0  0  0  0  0  0  0  0  0  0
   -3.5709   -2.7189   -1.6909 C   0  0  0  0  0  0  0  0  0  0  0  0
   -4.3792   -2.5522   -2.6042 O   0  0  0  0  0  0  0  0  0  0  0  0
   -3.2066   -1.5951   -0.7009 C   0  0  1  0  0  0  0  0  0  0  0  0
   -3.6049   -0.3340   -1.3309 N   0  0  0  0  0  0  0  0  0  0  0  0
   -2.9713    0.8518   -1.0566 C   0  0  0  0  0  0  0  0  0  0  0  0
   -2.0315    0.9191   -0.2622 O   0  0  0  0  0  0  0  0  0  0  0  0
   -3.5461    2.0893   -1.7878 C   0  0  1  0  0  0  0  0  0  0  0  0
   -2.8137    3.2572   -1.3111 N   0  0  0  0  0  0  0  0  0  0  0  0
   -3.2905    3.9972   -0.2468 C   0  0  0  0  0  0  0  0  0  0  0  0
   -4.4751    3.9992    0.0834 O   0  0  0  0  0  0  0  0  0  0  0  0
   -2.1997    4.8163    0.4750 C   0  0  2  0  0  0  0  0  0  0  0  0
   -1.2636    3.8788    1.1169 N   0  0  0  0  0  0  0  0  0  0  0  0
   -0.2032    3.3344    0.4238 C   0  0  0  0  0  0  0  0  0  0  0  0
    0.0112    3.6175   -0.7567 O   0  0  0  0  0  0  0  0  0  0  0  0
    0.6791    2.3576    1.2253 C   0  0  1  0  0  0  0  0  0  0  0  0
    1.6350    1.7484    0.3038 N   0  0  0  0  0  0  0  0  0  0  0  0
    2.3426    0.6161    0.6275 C   0  0  0  0  0  0  0  0  0  0  0  0
    2.1798    0.0186    1.6895 O   0  0  0  0  0  0  0  0  0  0  0  0
    1.3528    3.0637    2.4185 C   0  0  0  0  0  0  0  0  0  0  0  0
    2.2870    4.1575    2.0158 C   0  0  0  0  0  0  0  0  0  0  0  0
    3.6378    4.1591    1.7399 C   0  0  0  0  0  0  0  0  0  0  0  0
    4.0636    5.4140    1.3916 N   0  0  0  0  0  0  0  0  0  0  0  0
    2.9988    6.1769    1.4686 C   0  0  0  0  0  0  0  0  0  0  0  0
    1.8984    5.4649    1.8502 N   0  0  0  0  0  0  0  0  0  0  0  0
   -2.8280    5.7655    1.5066 C   0  0  0  0  0  0  0  0  0  0  0  0
   -1.8053    6.6593    2.1741 C   0  0  0  0  0  0  0  0  0  0  0  0
   -1.4069    6.4214    3.4969 C   0  0  0  0  0  0  0  0  0  0  0  0
   -0.4517    7.2376    4.1053 C   0  0  0  0  0  0  0  0  0  0  0  0
    0.1123    8.2987    3.3995 C   0  0  0  0  0  0  0  0  0  0  0  0
   -0.2790    8.5461    2.0852 C   0  0  0  0  0  0  0  0  0  0  0  0
   -1.2330    7.7309    1.4740 C   0  0  0  0  0  0  0  0  0  0  0  0
   -3.4435    1.9493   -3.3076 C   0  0  0  0  0  0  0  0  0  0  0  0
   -3.8987    3.1817   -4.1037 C   0  0  0  0  0  0  0  0  0  0  0  0
   -5.1980    3.8338   -3.6269 C   0  0  0  0  0  0  0  0  0  0  0  0
   -6.2538    2.8326   -3.5523 N   0  0  0  0  0  0  0  0  0  0  0  0
   -7.0397    2.7983   -2.5454 C   0  0  0  0  0  0  0  0  0  0  0  0
   -8.0448    1.8950   -2.5297 N   0  0  0  0  0  0  0  0  0  0  0  0
   -7.0721    3.5310   -1.4100 N   0  0  0  0  0  0  0  0  0  0  0  0
   -3.8809   -1.7534    0.6683 C   0  0  0  0  0  0  0  0  0  0  0  0
   -3.3703   -2.8931    1.4962 C   0  0  0  0  0  0  0  0  0  0  0  0
   -4.1221   -3.9586    1.9519 C   0  0  0  0  0  0  0  0  0  0  0  0
   -3.3022   -4.8028    2.6481 N   0  0  0  0  0  0  0  0  0  0  0  0
   -2.0184   -4.3136    2.6585 C   0  0  0  0  0  0  0  0  0  0  0  0
   -0.8587   -4.8500    3.2307 C   0  0  0  0  0  0  0  0  0  0  0  0
    0.3255   -4.1224    3.0957 C   0  0  0  0  0  0  0  0  0  0  0  0
    0.3418   -2.9029    2.4260 C   0  0  0  0  0  0  0  0  0  0  0  0
   -0.8273   -2.3768    1.8647 C   0  0  0  0  0  0  0  0  0  0  0  0
   -2.0332   -3.0990    1.9706 C   0  0  0  0  0  0  0  0  0  0  0  0
   -4.2116   -5.9598   -1.9412 C   0  0  0  0  0  0  0  0  0  0  0  0
   -4.6024   -6.9589   -2.5271 O   0  0  0  0  0  0  0  0  0  0  0  0
   -4.7849   -5.6110   -0.7716 O   0  0  0  0  0  0  0  0  0  0  0  0
    7.4887   -2.4774   -0.6324 N   0  0  0  0  0  0  0  0  0  0  0  0
    8.5735   -1.6441   -0.4588 C   0  0  0  0  0  0  0  0  0  0  0  0
    8.6803   -0.8112    0.4332 O   0  0  0  0  0  0  0  0  0  0  0  0
    9.6534   -1.8407   -1.4900 C   0  0  0  0  0  0  0  0  0  0  0  0
    4.4789   -4.3445    1.9366 H   0  0  0  0  0  0  0  0  0  0  0  0
    5.0915   -4.6949    3.5663 H   0  0  0  0  0  0  0  0  0  0  0  0
    4.8860   -6.0022    2.3888 H   0  0  0  0  0  0  0  0  0  0  0  0
    6.6717   -5.0060    0.9542 H   0  0  0  0  0  0  0  0  0  0  0  0
    7.2569   -5.4843    2.5372 H   0  0  0  0  0  0  0  0  0  0  0  0
    7.1938   -3.1852    3.3621 H   0  0  0  0  0  0  0  0  0  0  0  0
    8.2064   -3.3242    1.9405 H   0  0  0  0  0  0  0  0  0  0  0  0
    6.8417   -1.2594    1.9185 H   0  0  0  0  0  0  0  0  0  0  0  0
    5.3830   -2.1762    2.0975 H   0  0  0  0  0  0  0  0  0  0  0  0
    5.6408   -3.1911   -0.1361 H   0  0  0  0  0  0  0  0  0  0  0  0
    3.9008   -1.4138    0.7998 H   0  0  0  0  0  0  0  0  0  0  0  0
    3.8639    1.0198   -0.8235 H   0  0  0  0  0  0  0  0  0  0  0  0
    3.2029   -0.5744   -2.5010 H   0  0  0  0  0  0  0  0  0  0  0  0
    1.7134    0.1870   -1.9321 H   0  0  0  0  0  0  0  0  0  0  0  0
    0.7032   -1.6067   -2.9566 H   0  0  0  0  0  0  0  0  0  0  0  0
   -0.1542   -3.6177   -1.3384 H   0  0  0  0  0  0  0  0  0  0  0  0
    1.2771   -4.3344   -2.0878 H   0  0  0  0  0  0  0  0  0  0  0  0
   -1.1640   -3.2150   -3.5853 H   0  0  0  0  0  0  0  0  0  0  0  0
    0.3143   -3.7140   -4.3688 H   0  0  0  0  0  0  0  0  0  0  0  0
   -1.2953   -5.4917   -4.5594 H   0  0  0  0  0  0  0  0  0  0  0  0
    0.0705   -6.0199   -3.5962 H   0  0  0  0  0  0  0  0  0  0  0  0
   -1.9849   -6.8969   -2.7138 H   0  0  0  0  0  0  0  0  0  0  0  0
   -1.2442   -5.8523   -1.5224 H   0  0  0  0  0  0  0  0  0  0  0  0
   -3.3654   -4.6717   -3.3871 H   0  0  0  0  0  0  0  0  0  0  0  0
   -2.5542   -4.0974   -0.5719 H   0  0  0  0  0  0  0  0  0  0  0  0
   -2.1150   -1.5803   -0.6074 H   0  0  0  0  0  0  0  0  0  0  0  0
   -4.3782   -0.3757   -1.9919 H   0  0  0  0  0  0  0  0  0  0  0  0
   -4.5891    2.1587   -1.4718 H   0  0  0  0  0  0  0  0  0  0  0  0
   -1.7977    3.2075   -1.3991 H   0  0  0  0  0  0  0  0  0  0  0  0
   -1.6608    5.3946   -0.2861 H   0  0  0  0  0  0  0  0  0  0  0  0
   -1.6314    3.3253    1.8834 H   0  0  0  0  0  0  0  0  0  0  0  0
    0.0334    1.5557    1.6043 H   0  0  0  0  0  0  0  0  0  0  0  0
    1.9084    2.3154   -0.4940 H   0  0  0  0  0  0  0  0  0  0  0  0
    0.5887    3.4742    3.0906 H   0  0  0  0  0  0  0  0  0  0  0  0
    1.9137    2.3304    3.0111 H   0  0  0  0  0  0  0  0  0  0  0  0
    4.3252    3.3223    1.7689 H   0  0  0  0  0  0  0  0  0  0  0  0
    2.9608    7.2384    1.2650 H   0  0  0  0  0  0  0  0  0  0  0  0
    0.9698    5.8462    1.9796 H   0  0  0  0  0  0  0  0  0  0  0  0
   -3.3674    5.1908    2.2715 H   0  0  0  0  0  0  0  0  0  0  0  0
   -3.5832    6.4012    1.0257 H   0  0  0  0  0  0  0  0  0  0  0  0
   -1.8420    5.6038    4.0678 H   0  0  0  0  0  0  0  0  0  0  0  0
   -0.1521    7.0511    5.1342 H   0  0  0  0  0  0  0  0  0  0  0  0
    0.8506    8.9384    3.8777 H   0  0  0  0  0  0  0  0  0  0  0  0
    0.1532    9.3812    1.5384 H   0  0  0  0  0  0  0  0  0  0  0  0
   -1.5321    7.9453    0.4497 H   0  0  0  0  0  0  0  0  0  0  0  0
   -4.0394    1.0883   -3.6350 H   0  0  0  0  0  0  0  0  0  0  0  0
   -2.4088    1.7169   -3.5924 H   0  0  0  0  0  0  0  0  0  0  0  0
   -3.1047    3.9385   -4.0833 H   0  0  0  0  0  0  0  0  0  0  0  0
   -4.0086    2.8843   -5.1544 H   0  0  0  0  0  0  0  0  0  0  0  0
   -5.4929    4.5959   -4.3578 H   0  0  0  0  0  0  0  0  0  0  0  0
   -5.0185    4.3681   -2.6915 H   0  0  0  0  0  0  0  0  0  0  0  0
   -8.1203    1.4623   -3.4462 H   0  0  0  0  0  0  0  0  0  0  0  0
   -8.9282    2.3216   -2.2766 H   0  0  0  0  0  0  0  0  0  0  0  0
   -6.1882    3.9640   -1.1451 H   0  0  0  0  0  0  0  0  0  0  0  0
   -7.4112    2.9980   -0.6179 H   0  0  0  0  0  0  0  0  0  0  0  0
   -3.7499   -0.8337    1.2538 H   0  0  0  0  0  0  0  0  0  0  0  0
   -4.9643   -1.8656    0.5256 H   0  0  0  0  0  0  0  0  0  0  0  0
   -5.1722   -4.1907    1.8302 H   0  0  0  0  0  0  0  0  0  0  0  0
   -3.5901   -5.6633    3.0934 H   0  0  0  0  0  0  0  0  0  0  0  0
   -0.8701   -5.7956    3.7626 H   0  0  0  0  0  0  0  0  0  0  0  0
    1.2480   -4.5089    3.5229 H   0  0  0  0  0  0  0  0  0  0  0  0
    1.2744   -2.3496    2.3317 H   0  0  0  0  0  0  0  0  0  0  0  0
   -0.7842   -1.4180    1.3544 H   0  0  0  0  0  0  0  0  0  0  0  0
   -5.5031   -6.2688   -0.6647 H   0  0  0  0  0  0  0  0  0  0  0  0
    7.3652   -2.8134   -1.5791 H   0  0  0  0  0  0  0  0  0  0  0  0
   10.6296   -1.8009   -0.9987 H   0  0  0  0  0  0  0  0  0  0  0  0
    9.5838   -1.0463   -2.2375 H   0  0  0  0  0  0  0  0  0  0  0  0
    9.5622   -2.8111   -1.9862 H   0  0  0  0  0  0  0  0  0  0  0  0
  1  2  1  0
  2  3  1  0
  3  4  1  0
  4  5  1  0
  5  6  1  0
  6  7  2  0
  6  8  1  0
  8  9  1  0
  9 10  1  0
 10 11  1  0
 11 12  2  0
 11 13  1  0
 13 14  1  0
 14 15  1  0
 15 16  1  0
 16 17  1  0
 17 18  1  0
 18 19  1  0
 19 20  1  0
 20 21  2  0
 20 22  1  0
 22 23  1  0
 23 24  1  0
 24 25  2  0
 24 26  1  0
 26 27  1  0
 27 28  1  0
 28 29  2  0
 28 30  1  0
 30 31  1  0
 31 32  1  0
 32 33  2  0
 32 34  1  0
 34 35  1  0
 35 36  1  0
 36 37  2  0
 34 38  1  0
 38 39  1  0
 39 40  2  0
 40 41  1  0
 41 42  2  0
 42 43  1  0
 30 44  1  0
 44 45  1  0
 45 46  2  0
 46 47  1  0
 47 48  2  0
 48 49  1  0
 49 50  2  0
 26 51  1  0
 51 52  1  0
 52 53  1  0
 53 54  1  0
 54 55  2  3
 55 56  1  0
 55 57  1  0
 22 58  1  0
 58 59  1  0
 59 60  2  0
 60 61  1  0
 61 62  1  0
 62 63  2  0
 63 64  1  0
 64 65  2  0
 65 66  1  0
 66 67  2  0
 18 68  1  0
 68 69  2  0
 68 70  1  0
  5 71  1  0
 71 72  1  0
 72 73  2  0
 72 74  1  0
 36  9  1  0
 43 39  1  0
 50 45  1  0
 67 59  1  0
 67 62  1  0
  1 75  1  0
  1 76  1  0
  1 77  1  0
  2 78  1  0
  2 79  1  0
  3 80  1  0
  3 81  1  0
  4 82  1  0
  4 83  1  0
  5 84  1  1
  8 85  1  0
  9 86  1  6
 10 87  1  0
 10 88  1  0
 13 89  1  0
 14 90  1  0
 14 91  1  0
 15 92  1  0
 15 93  1  0
 16 94  1  0
 16 95  1  0
 17 96  1  0
 17 97  1  0
 18 98  1  6
 19 99  1  0
 22100  1  1
 23101  1  0
 26102  1  6
 27103  1  0
 30104  1  6
 31105  1  0
 34106  1  1
 35107  1  0
 38108  1  0
 38109  1  0
 40110  1  0
 42111  1  0
 43112  1  0
 44113  1  0
 44114  1  0
 46115  1  0
 47116  1  0
 48117  1  0
 49118  1  0
 50119  1  0
 51120  1  0
 51121  1  0
 52122  1  0
 52123  1  0
 53124  1  0
 53125  1  0
 56126  1  0
 56127  1  0
 57128  1  0
 57129  1  0
 58130  1  0
 58131  1  0
 60132  1  0
 61133  1  0
 63134  1  0
 64135  1  0
 65136  1  0
 66137  1  0
 70138  1  0
 71139  1  0
 74140  1  0
 74141  1  0
 74142  1  0
M  END
