
     RDKit          3D

110112  0  0  0  0  0  0  0  0999 V2000
   -6.0763    3.8181   -0.6550 C   0  0  0  0  0  0  0  0  0  0  0  0
   -4.7523    3.6354   -1.3923 C   0  0  2  0  0  0  0  0  0  0  0  0
   -4.5722    2.2538   -2.0652 C   0  0  1  0  0  0  0  0  0  0  0  0
   -4.6248    1.1087   -1.0257 C   0  0  0  0  0  0  0  0  0  0  0  0
   -5.5639    0.3179   -0.9591 O   0  0  0  0  0  0  0  0  0  0  0  0
   -3.5318    1.0572   -0.1830 N   0  0  0  0  0  0  0  0  0  0  0  0
   -3.3190   -0.0595    0.7380 C   0  0  1  0  0  0  0  0  0  0  0  0
   -4.4133   -0.2209    1.8031 C   0  0  0  0  0  0  0  0  0  0  0  0
   -4.6747    1.0332    2.6512 C   0  0  0  0  0  0  0  0  0  0  0  0
   -3.4431    1.5241    3.4160 C   0  0  0  0  0  0  0  0  0  0  0  0
   -3.8009    2.6495    4.3856 C   0  0  0  0  0  0  0  0  0  0  0  0
   -2.6052    3.0951    5.0890 N   0  0  0  0  0  0  0  0  0  0  0  0
   -2.9168   -1.3140   -0.0876 C   0  0  0  0  0  0  0  0  0  0  0  0
   -2.2476   -1.2104   -1.1194 O   0  0  0  0  0  0  0  0  0  0  0  0
   -3.2150   -2.5500    0.4931 N   0  0  0  0  0  0  0  0  0  0  0  0
   -4.5503   -3.0080    0.1209 C   0  0  0  0  0  0  0  0  0  0  0  0
   -4.3467   -3.9674   -1.0604 C   0  0  0  0  0  0  0  0  0  0  0  0
   -2.8448   -4.2623   -1.1030 C   0  0  0  0  0  0  0  0  0  0  0  0
   -2.3453   -3.7046    0.2209 C   0  0  1  0  0  0  0  0  0  0  0  0
   -0.8143   -3.5663    0.3591 C   0  0  0  0  0  0  0  0  0  0  0  0
   -0.1799   -4.2368    1.1754 O   0  0  0  0  0  0  0  0  0  0  0  0
   -0.1997   -2.7016   -0.5045 N   0  0  0  0  0  0  0  0  0  0  0  0
    1.2395   -2.4619   -0.5260 C   0  0  1  0  0  0  0  0  0  0  0  0
    1.8900   -3.2018   -1.7069 C   0  0  0  0  0  0  0  0  0  0  0  0
    1.8498   -4.7305   -1.5957 C   0  0  0  0  0  0  0  0  0  0  0  0
    2.7450   -5.2791   -0.4858 C   0  0  0  0  0  0  0  0  0  0  0  0
    2.6103   -6.7313   -0.4388 N   0  0  0  0  0  0  0  0  0  0  0  0
    1.8745   -7.2690    0.4566 C   0  0  0  0  0  0  0  0  0  0  0  0
    1.1187   -6.7225    1.4333 N   0  0  0  0  0  0  0  0  0  0  0  0
    1.7901   -8.6167    0.5193 N   0  0  0  0  0  0  0  0  0  0  0  0
    1.4683   -0.9353   -0.6355 C   0  0  0  0  0  0  0  0  0  0  0  0
    1.7931   -0.4014   -1.6998 O   0  0  0  0  0  0  0  0  0  0  0  0
    1.2677   -0.1744    0.4998 N   0  0  0  0  0  0  0  0  0  0  0  0
    0.8214   -0.6513    1.8015 C   0  0  0  0  0  0  0  0  0  0  0  0
    0.8215    0.5823    2.6929 C   0  0  0  0  0  0  0  0  0  0  0  0
    0.5656    1.7200    1.7103 C   0  0  0  0  0  0  0  0  0  0  0  0
    1.3596    1.2913    0.4749 C   0  0  1  0  0  0  0  0  0  0  0  0
    2.8265    1.7878    0.5216 C   0  0  0  0  0  0  0  0  0  0  0  0
    3.2452    2.5773    1.3656 O   0  0  0  0  0  0  0  0  0  0  0  0
    3.6121    1.3244   -0.5128 N   0  0  0  0  0  0  0  0  0  0  0  0
    4.8929    1.9348   -0.8054 C   0  0  0  0  0  0  0  0  0  0  0  0
    4.7391    3.0631   -1.8392 C   0  0  0  0  0  0  0  0  0  0  0  0
    3.6831    3.2315   -2.4542 O   0  0  0  0  0  0  0  0  0  0  0  0
    5.8547    3.8361   -2.0918 N   0  0  0  0  0  0  0  0  0  0  0  0
    5.8638    4.8258   -3.1498 C   0  0  0  0  0  0  0  0  0  0  0  0
    7.3047    4.8111   -3.6278 C   0  0  0  0  0  0  0  0  0  0  0  0
    8.1000    4.5764   -2.3478 C   0  0  0  0  0  0  0  0  0  0  0  0
    7.1789    3.7155   -1.4723 C   0  0  1  0  0  0  0  0  0  0  0  0
    7.1891    4.2718   -0.0489 C   0  0  0  0  0  0  0  0  0  0  0  0
    6.6434    5.2867    0.3511 O   0  0  0  0  0  0  0  0  0  0  0  0
    7.9171    3.5108    0.7946 O   0  0  0  0  0  0  0  0  0  0  0  0
   -5.5762    1.9994   -3.1244 N   0  0  0  0  0  0  0  0  0  0  0  0
   -3.6697    3.9088   -0.4920 O   0  0  0  0  0  0  0  0  0  0  0  0
   -6.1809    3.1017    0.1659 H   0  0  0  0  0  0  0  0  0  0  0  0
   -6.9329    3.7090   -1.3261 H   0  0  0  0  0  0  0  0  0  0  0  0
   -6.1199    4.8148   -0.2021 H   0  0  0  0  0  0  0  0  0  0  0  0
   -4.6902    4.4040   -2.1722 H   0  0  0  0  0  0  0  0  0  0  0  0
   -3.5797    2.2163   -2.5320 H   0  0  0  0  0  0  0  0  0  0  0  0
   -2.6899    1.4968   -0.5455 H   0  0  0  0  0  0  0  0  0  0  0  0
   -2.3912    0.1913    1.2666 H   0  0  0  0  0  0  0  0  0  0  0  0
   -4.1398   -1.0400    2.4802 H   0  0  0  0  0  0  0  0  0  0  0  0
   -5.3633   -0.5160    1.3471 H   0  0  0  0  0  0  0  0  0  0  0  0
   -5.0589    1.8402    2.0174 H   0  0  0  0  0  0  0  0  0  0  0  0
   -5.4718    0.7951    3.3667 H   0  0  0  0  0  0  0  0  0  0  0  0
   -2.9964    0.6877    3.9681 H   0  0  0  0  0  0  0  0  0  0  0  0
   -2.6892    1.8880    2.7087 H   0  0  0  0  0  0  0  0  0  0  0  0
   -4.5357    2.2963    5.1170 H   0  0  0  0  0  0  0  0  0  0  0  0
   -4.2443    3.4931    3.8455 H   0  0  0  0  0  0  0  0  0  0  0  0
   -2.8529    3.8417    5.7384 H   0  0  0  0  0  0  0  0  0  0  0  0
   -1.9455    3.5075    4.4298 H   0  0  0  0  0  0  0  0  0  0  0  0
   -4.9685   -3.5442    0.9802 H   0  0  0  0  0  0  0  0  0  0  0  0
   -5.2253   -2.1926   -0.1498 H   0  0  0  0  0  0  0  0  0  0  0  0
   -4.9368   -4.8796   -0.9230 H   0  0  0  0  0  0  0  0  0  0  0  0
   -4.6678   -3.5060   -2.0008 H   0  0  0  0  0  0  0  0  0  0  0  0
   -2.3853   -3.7581   -1.9605 H   0  0  0  0  0  0  0  0  0  0  0  0
   -2.6359   -5.3320   -1.2052 H   0  0  0  0  0  0  0  0  0  0  0  0
   -2.6151   -4.4317    1.0036 H   0  0  0  0  0  0  0  0  0  0  0  0
   -0.7857   -2.1343   -1.1233 H   0  0  0  0  0  0  0  0  0  0  0  0
    1.6917   -2.8030    0.4087 H   0  0  0  0  0  0  0  0  0  0  0  0
    2.9339   -2.8799   -1.8135 H   0  0  0  0  0  0  0  0  0  0  0  0
    1.3830   -2.9150   -2.6379 H   0  0  0  0  0  0  0  0  0  0  0  0
    2.1821   -5.1547   -2.5523 H   0  0  0  0  0  0  0  0  0  0  0  0
    0.8189   -5.0767   -1.4600 H   0  0  0  0  0  0  0  0  0  0  0  0
    2.5436   -4.8090    0.4804 H   0  0  0  0  0  0  0  0  0  0  0  0
    3.7909   -5.0433   -0.7157 H   0  0  0  0  0  0  0  0  0  0  0  0
    0.2721   -7.2497    1.6045 H   0  0  0  0  0  0  0  0  0  0  0  0
    0.8731   -5.7389    1.2982 H   0  0  0  0  0  0  0  0  0  0  0  0
    2.4813   -9.0209   -0.1058 H   0  0  0  0  0  0  0  0  0  0  0  0
    1.9317   -8.9552    1.4629 H   0  0  0  0  0  0  0  0  0  0  0  0
    1.4819   -1.4369    2.1774 H   0  0  0  0  0  0  0  0  0  0  0  0
   -0.1915   -1.0496    1.6954 H   0  0  0  0  0  0  0  0  0  0  0  0
    0.0694    0.5268    3.4849 H   0  0  0  0  0  0  0  0  0  0  0  0
    1.8041    0.7073    3.1630 H   0  0  0  0  0  0  0  0  0  0  0  0
   -0.5026    1.7569    1.4659 H   0  0  0  0  0  0  0  0  0  0  0  0
    0.8497    2.6946    2.1167 H   0  0  0  0  0  0  0  0  0  0  0  0
    0.9036    1.6861   -0.4407 H   0  0  0  0  0  0  0  0  0  0  0  0
    3.1082    0.9125   -1.3015 H   0  0  0  0  0  0  0  0  0  0  0  0
    5.3366    2.3165    0.1160 H   0  0  0  0  0  0  0  0  0  0  0  0
    5.5313    1.1565   -1.2335 H   0  0  0  0  0  0  0  0  0  0  0  0
    5.1536    4.5888   -3.9470 H   0  0  0  0  0  0  0  0  0  0  0  0
    5.5999    5.7924   -2.7070 H   0  0  0  0  0  0  0  0  0  0  0  0
    7.4629    3.9712   -4.3152 H   0  0  0  0  0  0  0  0  0  0  0  0
    7.5894    5.7326   -4.1429 H   0  0  0  0  0  0  0  0  0  0  0  0
    8.3298    5.5392   -1.8749 H   0  0  0  0  0  0  0  0  0  0  0  0
    9.0537    4.0773   -2.5473 H   0  0  0  0  0  0  0  0  0  0  0  0
    7.4715    2.6606   -1.4749 H   0  0  0  0  0  0  0  0  0  0  0  0
    7.8094    3.9577    1.6625 H   0  0  0  0  0  0  0  0  0  0  0  0
   -6.4634    1.7788   -2.6622 H   0  0  0  0  0  0  0  0  0  0  0  0
   -5.3268    1.1212   -3.5848 H   0  0  0  0  0  0  0  0  0  0  0  0
   -3.8524    3.4358    0.3396 H   0  0  0  0  0  0  0  0  0  0  0  0
  1  2  1  0
  2  3  1  0
  3  4  1  0
  4  5  2  0
  4  6  1  0
  6  7  1  0
  7  8  1  0
  8  9  1  0
  9 10  1  0
 10 11  1  0
 11 12  1  0
  7 13  1  0
 13 14  2  0
 13 15  1  0
 15 16  1  0
 16 17  1  0
 17 18  1  0
 18 19  1  0
 19 20  1  0
 20 21  2  0
 20 22  1  0
 22 23  1  0
 23 24  1  0
 24 25  1  0
 25 26  1  0
 26 27  1  0
 27 28  2  3
 28 29  1  0
 28 30  1  0
 23 31  1  0
 31 32  2  0
 31 33  1  0
 33 34  1  0
 34 35  1  0
 35 36  1  0
 36 37  1  0
 37 38  1  0
 38 39  2  0
 38 40  1  0
 40 41  1  0
 41 42  1  0
 42 43  2  0
 42 44  1  0
 44 45  1  0
 45 46  1  0
 46 47  1  0
 47 48  1  0
 48 49  1  0
 49 50  2  0
 49 51  1  0
  3 52  1  0
  2 53  1  0
 19 15  1  0
 37 33  1  0
 48 44  1  0
  1 54  1  0
  1 55  1  0
  1 56  1  0
  2 57  1  6
  3 58  1  6
  6 59  1  0
  7 60  1  1
  8 61  1  0
  8 62  1  0
  9 63  1  0
  9 64  1  0
 10 65  1  0
 10 66  1  0
 11 67  1  0
 11 68  1  0
 12 69  1  0
 12 70  1  0
 16 71  1  0
 16 72  1  0
 17 73  1  0
 17 74  1  0
 18 75  1  0
 18 76  1  0
 19 77  1  1
 22 78  1  0
 23 79  1  1
 24 80  1  0
 24 81  1  0
 25 82  1  0
 25 83  1  0
 26 84  1  0
 26 85  1  0
 29 86  1  0
 29 87  1  0
 30 88  1  0
 30 89  1  0
 34 90  1  0
 34 91  1  0
 35 92  1  0
 35 93  1  0
 36 94  1  0
 36 95  1  0
 37 96  1  6
 40 97  1  0
 41 98  1  0
 41 99  1  0
 45100  1  0
 45101  1  0
 46102  1  0
 46103  1  0
 47104  1  0
 47105  1  0
 48106  1  1
 51107  1  0
 52108  1  0
 52109  1  0
 53110  1  0
M  END
