
     RDKit          3D

108111  0  0  0  0  0  0  0  0999 V2000
   -7.1947   -3.9042    0.5593 C   0  0  0  0  0  0  0  0  0  0  0  0
   -7.6674   -2.2263    1.0505 S   0  0  0  0  0  0  0  0  0  0  0  0
   -8.5276   -1.7169   -0.4753 C   0  0  0  0  0  0  0  0  0  0  0  0
   -7.5855   -1.1290   -1.5280 C   0  0  0  0  0  0  0  0  0  0  0  0
   -7.0833    0.2770   -1.1605 C   0  0  1  0  0  0  0  0  0  0  0  0
   -5.5580    0.2779   -0.8883 C   0  0  0  0  0  0  0  0  0  0  0  0
   -4.7318    0.6439   -1.7260 O   0  0  0  0  0  0  0  0  0  0  0  0
   -5.1949   -0.1498    0.3651 N   0  0  0  0  0  0  0  0  0  0  0  0
   -3.8181   -0.2365    0.8567 C   0  0  1  0  0  0  0  0  0  0  0  0
   -2.8906   -1.1359    0.0198 C   0  0  0  0  0  0  0  0  0  0  0  0
   -3.4138   -2.5526   -0.2170 C   0  0  0  0  0  0  0  0  0  0  0  0
   -3.4778   -3.3905    1.0299 C   0  0  0  0  0  0  0  0  0  0  0  0
   -3.2519   -3.0470    2.1758 O   0  0  0  0  0  0  0  0  0  0  0  0
   -3.8456   -4.6597    0.7616 O   0  0  0  0  0  0  0  0  0  0  0  0
   -3.2228    1.1799    1.0605 C   0  0  0  0  0  0  0  0  0  0  0  0
   -3.1196    1.6928    2.1720 O   0  0  0  0  0  0  0  0  0  0  0  0
   -2.8622    1.8330   -0.0999 N   0  0  0  0  0  0  0  0  0  0  0  0
   -2.4077    3.2262   -0.1150 C   0  0  1  0  0  0  0  0  0  0  0  0
   -3.3637    4.2487    0.5268 C   0  0  0  0  0  0  0  0  0  0  0  0
   -4.7120    4.2454   -0.1163 C   0  0  0  0  0  0  0  0  0  0  0  0
   -5.8834    3.6030    0.2175 C   0  0  0  0  0  0  0  0  0  0  0  0
   -6.8583    3.8506   -0.7146 N   0  0  0  0  0  0  0  0  0  0  0  0
   -6.3144    4.6865   -1.5698 C   0  0  0  0  0  0  0  0  0  0  0  0
   -5.0145    4.9565   -1.2503 N   0  0  0  0  0  0  0  0  0  0  0  0
   -0.9680    3.3758    0.4228 C   0  0  0  0  0  0  0  0  0  0  0  0
   -0.5366    4.4133    0.9218 O   0  0  0  0  0  0  0  0  0  0  0  0
   -0.1420    2.3237    0.0974 N   0  0  0  0  0  0  0  0  0  0  0  0
    1.2864    2.3075    0.3942 C   0  0  1  0  0  0  0  0  0  0  0  0
    1.6049    1.8892    1.8392 C   0  0  0  0  0  0  0  0  0  0  0  0
    0.9195    0.6286    2.3199 C   0  0  0  0  0  0  0  0  0  0  0  0
    1.3763   -0.6400    1.9424 C   0  0  0  0  0  0  0  0  0  0  0  0
    0.7339   -1.7936    2.3962 C   0  0  0  0  0  0  0  0  0  0  0  0
   -0.3738   -1.6915    3.2330 C   0  0  0  0  0  0  0  0  0  0  0  0
   -0.8418   -0.4367    3.6118 C   0  0  0  0  0  0  0  0  0  0  0  0
   -0.1986    0.7161    3.1595 C   0  0  0  0  0  0  0  0  0  0  0  0
    2.0044    1.4192   -0.6471 C   0  0  0  0  0  0  0  0  0  0  0  0
    1.3779    0.5708   -1.2908 O   0  0  0  0  0  0  0  0  0  0  0  0
    3.3715    1.5713   -0.8170 N   0  0  0  0  0  0  0  0  0  0  0  0
    4.1889    2.6890   -0.3628 C   0  0  0  0  0  0  0  0  0  0  0  0
    5.1580    2.9267   -1.5083 C   0  0  0  0  0  0  0  0  0  0  0  0
    5.4110    1.5247   -2.0376 C   0  0  0  0  0  0  0  0  0  0  0  0
    4.0551    0.8221   -1.8891 C   0  0  1  0  0  0  0  0  0  0  0  0
    4.3032   -0.6615   -1.5594 C   0  0  0  0  0  0  0  0  0  0  0  0
    4.5453   -1.4953   -2.4300 O   0  0  0  0  0  0  0  0  0  0  0  0
    4.4195   -0.9371   -0.2123 N   0  0  0  0  0  0  0  0  0  0  0  0
    5.0551   -2.1549    0.2477 C   0  0  0  0  0  0  0  0  0  0  0  0
    6.5131   -1.8102    0.5623 C   0  0  0  0  0  0  0  0  0  0  0  0
    6.7752   -0.9252    1.3845 O   0  0  0  0  0  0  0  0  0  0  0  0
    7.5062   -2.4640   -0.1232 N   0  0  0  0  0  0  0  0  0  0  0  0
    7.3501   -3.4635   -1.1677 C   0  0  0  0  0  0  0  0  0  0  0  0
    8.7569   -3.6879   -1.7050 C   0  0  0  0  0  0  0  0  0  0  0  0
    9.6516   -3.3401   -0.5183 C   0  0  0  0  0  0  0  0  0  0  0  0
    8.9148   -2.1774    0.1428 C   0  0  1  0  0  0  0  0  0  0  0  0
    9.3479   -0.8411   -0.4691 C   0  0  0  0  0  0  0  0  0  0  0  0
    8.7678   -0.1846   -1.3202 O   0  0  0  0  0  0  0  0  0  0  0  0
   10.5418   -0.4231    0.0071 O   0  0  0  0  0  0  0  0  0  0  0  0
   -7.3745    1.2160   -2.2650 N   0  0  0  0  0  0  0  0  0  0  0  0
   -8.0847   -4.5048    0.3542 H   0  0  0  0  0  0  0  0  0  0  0  0
   -6.5546   -3.8817   -0.3256 H   0  0  0  0  0  0  0  0  0  0  0  0
   -6.6443   -4.3738    1.3784 H   0  0  0  0  0  0  0  0  0  0  0  0
   -9.0574   -2.5825   -0.8874 H   0  0  0  0  0  0  0  0  0  0  0  0
   -9.2930   -0.9819   -0.2035 H   0  0  0  0  0  0  0  0  0  0  0  0
   -8.1625   -1.0808   -2.4619 H   0  0  0  0  0  0  0  0  0  0  0  0
   -6.7534   -1.8135   -1.7338 H   0  0  0  0  0  0  0  0  0  0  0  0
   -7.5913    0.6624   -0.2690 H   0  0  0  0  0  0  0  0  0  0  0  0
   -5.9284   -0.4647    0.9959 H   0  0  0  0  0  0  0  0  0  0  0  0
   -3.9031   -0.6602    1.8639 H   0  0  0  0  0  0  0  0  0  0  0  0
   -2.7039   -0.6868   -0.9624 H   0  0  0  0  0  0  0  0  0  0  0  0
   -1.9107   -1.1842    0.5106 H   0  0  0  0  0  0  0  0  0  0  0  0
   -4.4067   -2.5278   -0.6754 H   0  0  0  0  0  0  0  0  0  0  0  0
   -2.7310   -3.0564   -0.9114 H   0  0  0  0  0  0  0  0  0  0  0  0
   -3.8265   -5.0993    1.6381 H   0  0  0  0  0  0  0  0  0  0  0  0
   -3.3590    1.5134   -0.9349 H   0  0  0  0  0  0  0  0  0  0  0  0
   -2.3250    3.4691   -1.1843 H   0  0  0  0  0  0  0  0  0  0  0  0
   -2.9381    5.2571    0.4398 H   0  0  0  0  0  0  0  0  0  0  0  0
   -3.4708    4.0678    1.6021 H   0  0  0  0  0  0  0  0  0  0  0  0
   -6.0639    2.9574    1.0682 H   0  0  0  0  0  0  0  0  0  0  0  0
   -6.8036    5.1201   -2.4322 H   0  0  0  0  0  0  0  0  0  0  0  0
   -4.3953    5.5694   -1.7633 H   0  0  0  0  0  0  0  0  0  0  0  0
   -0.5626    1.4583   -0.2316 H   0  0  0  0  0  0  0  0  0  0  0  0
    1.6300    3.3355    0.2483 H   0  0  0  0  0  0  0  0  0  0  0  0
    1.3234    2.7125    2.5096 H   0  0  0  0  0  0  0  0  0  0  0  0
    2.6862    1.7634    1.9753 H   0  0  0  0  0  0  0  0  0  0  0  0
    2.2319   -0.7480    1.2850 H   0  0  0  0  0  0  0  0  0  0  0  0
    1.0948   -2.7716    2.0905 H   0  0  0  0  0  0  0  0  0  0  0  0
   -0.8845   -2.5862    3.5791 H   0  0  0  0  0  0  0  0  0  0  0  0
   -1.7185   -0.3506    4.2491 H   0  0  0  0  0  0  0  0  0  0  0  0
   -0.5937    1.6866    3.4567 H   0  0  0  0  0  0  0  0  0  0  0  0
    3.6110    3.5849   -0.1358 H   0  0  0  0  0  0  0  0  0  0  0  0
    4.7194    2.3632    0.5383 H   0  0  0  0  0  0  0  0  0  0  0  0
    6.0724    3.4341   -1.1893 H   0  0  0  0  0  0  0  0  0  0  0  0
    4.6797    3.5342   -2.2861 H   0  0  0  0  0  0  0  0  0  0  0  0
    6.1860    1.0378   -1.4331 H   0  0  0  0  0  0  0  0  0  0  0  0
    5.7587    1.5286   -3.0754 H   0  0  0  0  0  0  0  0  0  0  0  0
    3.4548    0.8937   -2.8032 H   0  0  0  0  0  0  0  0  0  0  0  0
    4.4688   -0.1374    0.4088 H   0  0  0  0  0  0  0  0  0  0  0  0
    4.9423   -2.9575   -0.4812 H   0  0  0  0  0  0  0  0  0  0  0  0
    4.5695   -2.4585    1.1801 H   0  0  0  0  0  0  0  0  0  0  0  0
    6.6651   -3.1156   -1.9446 H   0  0  0  0  0  0  0  0  0  0  0  0
    6.9467   -4.3719   -0.7080 H   0  0  0  0  0  0  0  0  0  0  0  0
    8.9091   -4.7075   -2.0698 H   0  0  0  0  0  0  0  0  0  0  0  0
    8.9554   -2.9981   -2.5342 H   0  0  0  0  0  0  0  0  0  0  0  0
    9.6910   -4.1943    0.1688 H   0  0  0  0  0  0  0  0  0  0  0  0
   10.6732   -3.1011   -0.8282 H   0  0  0  0  0  0  0  0  0  0  0  0
    9.0811   -2.1323    1.2249 H   0  0  0  0  0  0  0  0  0  0  0  0
   10.6858    0.4332   -0.4481 H   0  0  0  0  0  0  0  0  0  0  0  0
   -7.2614    2.1675   -1.8825 H   0  0  0  0  0  0  0  0  0  0  0  0
   -6.6098    1.1395   -2.9419 H   0  0  0  0  0  0  0  0  0  0  0  0
  1  2  1  0
  2  3  1  0
  3  4  1  0
  4  5  1  0
  5  6  1  0
  6  7  2  0
  6  8  1  0
  8  9  1  0
  9 10  1  0
 10 11  1  0
 11 12  1  0
 12 13  2  0
 12 14  1  0
  9 15  1  0
 15 16  2  0
 15 17  1  0
 17 18  1  0
 18 19  1  0
 19 20  1  0
 20 21  2  0
 21 22  1  0
 22 23  2  0
 23 24  1  0
 18 25  1  0
 25 26  2  0
 25 27  1  0
 27 28  1  0
 28 29  1  0
 29 30  1  0
 30 31  2  0
 31 32  1  0
 32 33  2  0
 33 34  1  0
 34 35  2  0
 28 36  1  0
 36 37  2  0
 36 38  1  0
 38 39  1  0
 39 40  1  0
 40 41  1  0
 41 42  1  0
 42 43  1  0
 43 44  2  0
 43 45  1  0
 45 46  1  0
 46 47  1  0
 47 48  2  0
 47 49  1  0
 49 50  1  0
 50 51  1  0
 51 52  1  0
 52 53  1  0
 53 54  1  0
 54 55  2  0
 54 56  1  0
  5 57  1  0
 24 20  1  0
 35 30  1  0
 42 38  1  0
 53 49  1  0
  1 58  1  0
  1 59  1  0
  1 60  1  0
  3 61  1  0
  3 62  1  0
  4 63  1  0
  4 64  1  0
  5 65  1  1
  8 66  1  0
  9 67  1  1
 10 68  1  0
 10 69  1  0
 11 70  1  0
 11 71  1  0
 14 72  1  0
 17 73  1  0
 18 74  1  6
 19 75  1  0
 19 76  1  0
 21 77  1  0
 23 78  1  0
 24 79  1  0
 27 80  1  0
 28 81  1  1
 29 82  1  0
 29 83  1  0
 31 84  1  0
 32 85  1  0
 33 86  1  0
 34 87  1  0
 35 88  1  0
 39 89  1  0
 39 90  1  0
 40 91  1  0
 40 92  1  0
 41 93  1  0
 41 94  1  0
 42 95  1  6
 45 96  1  0
 46 97  1  0
 46 98  1  0
 50 99  1  0
 50100  1  0
 51101  1  0
 51102  1  0
 52103  1  0
 52104  1  0
 53105  1  1
 56106  1  0
 57107  1  0
 57108  1  0
M  END
