
     RDKit          3D

482484  0  0  0  0  0  0  0  0999 V2000
    1.3745   -7.9574   -5.6159 C   0  0  0  0  0  0  0  0  0  0  0  0
    1.3320   -6.7779   -6.5766 C   0  0  0  0  0  0  0  0  0  0  0  0
    2.5181   -6.6901   -7.5621 C   0  0  2  0  0  0  0  0  0  0  0  0
    2.5080   -7.8911   -8.5217 C   0  0  0  0  0  0  0  0  0  0  0  0
    3.8931   -6.5499   -6.8548 C   0  0  1  0  0  0  0  0  0  0  0  0
    5.0649   -6.4946   -7.8572 C   0  0  0  0  0  0  0  0  0  0  0  0
    5.9286   -7.3664   -7.9058 O   0  0  0  0  0  0  0  0  0  0  0  0
    5.0722   -5.4005   -8.6880 N   0  0  0  0  0  0  0  0  0  0  0  0
    6.0540   -5.2433   -9.7699 C   0  0  1  0  0  0  0  0  0  0  0  0
    5.5724   -4.2329  -10.8208 C   0  0  0  0  0  0  0  0  0  0  0  0
    4.2689   -4.6383  -11.4700 C   0  0  0  0  0  0  0  0  0  0  0  0
    3.0685   -4.0082  -11.1124 C   0  0  0  0  0  0  0  0  0  0  0  0
    1.8623   -4.4053  -11.6909 C   0  0  0  0  0  0  0  0  0  0  0  0
    1.8441   -5.4338  -12.6307 C   0  0  0  0  0  0  0  0  0  0  0  0
    3.0317   -6.0657  -12.9939 C   0  0  0  0  0  0  0  0  0  0  0  0
    4.2395   -5.6708  -12.4170 C   0  0  0  0  0  0  0  0  0  0  0  0
    7.4009   -4.7468   -9.2011 C   0  0  0  0  0  0  0  0  0  0  0  0
    8.4481   -4.7555   -9.8410 O   0  0  0  0  0  0  0  0  0  0  0  0
    7.2950   -4.1691   -7.9586 N   0  0  0  0  0  0  0  0  0  0  0  0
    8.4423   -3.8514   -7.1157 C   0  0  1  0  0  0  0  0  0  0  0  0
    9.2595   -2.6506   -7.6385 C   0  0  1  0  0  0  0  0  0  0  0  0
    8.4285   -1.3925   -7.8577 C   0  0  0  0  0  0  0  0  0  0  0  0
   10.3308   -2.3362   -6.7332 O   0  0  0  0  0  0  0  0  0  0  0  0
    7.8472   -3.6747   -5.6958 C   0  0  0  0  0  0  0  0  0  0  0  0
    6.7159   -4.0804   -5.4157 O   0  0  0  0  0  0  0  0  0  0  0  0
    8.6697   -3.1151   -4.7573 N   0  0  0  0  0  0  0  0  0  0  0  0
    8.2469   -2.8103   -3.3844 C   0  0  1  0  0  0  0  0  0  0  0  0
    9.0527   -3.6389   -2.3949 C   0  0  0  0  0  0  0  0  0  0  0  0
    8.4288   -3.6231   -1.0190 C   0  0  0  0  0  0  0  0  0  0  0  0
    7.5298   -4.3850   -0.6737 O   0  0  0  0  0  0  0  0  0  0  0  0
    8.9575   -2.7136   -0.1543 N   0  0  0  0  0  0  0  0  0  0  0  0
    8.4569   -1.2947   -3.1792 C   0  0  0  0  0  0  0  0  0  0  0  0
    9.0529   -0.8205   -2.2144 O   0  0  0  0  0  0  0  0  0  0  0  0
    7.8606   -0.5022   -4.1467 N   0  0  0  0  0  0  0  0  0  0  0  0
    7.8820    0.9636   -4.0258 C   0  0  1  0  0  0  0  0  0  0  0  0
    7.8533    1.6613   -5.3920 C   0  0  0  0  0  0  0  0  0  0  0  0
    6.6976    1.3553   -6.1756 O   0  0  0  0  0  0  0  0  0  0  0  0
    6.7494    1.4871   -3.1247 C   0  0  0  0  0  0  0  0  0  0  0  0
    6.7667    2.6110   -2.6268 O   0  0  0  0  0  0  0  0  0  0  0  0
    5.6761    0.6381   -2.9856 N   0  0  0  0  0  0  0  0  0  0  0  0
    4.7466    0.7696   -1.8692 C   0  0  1  0  0  0  0  0  0  0  0  0
    3.4481    1.4608   -2.3046 C   0  0  0  0  0  0  0  0  0  0  0  0
    2.5926    1.9102   -1.1418 C   0  0  0  0  0  0  0  0  0  0  0  0
    3.1069    2.7939   -0.1790 C   0  0  0  0  0  0  0  0  0  0  0  0
    2.3688    3.1004    0.9632 C   0  0  0  0  0  0  0  0  0  0  0  0
    1.1018    2.5583    1.1276 C   0  0  0  0  0  0  0  0  0  0  0  0
    0.5512    1.7294    0.1569 C   0  0  0  0  0  0  0  0  0  0  0  0
    1.2972    1.4003   -0.9759 C   0  0  0  0  0  0  0  0  0  0  0  0
    0.4132    2.8865    2.2570 O   0  0  0  0  0  0  0  0  0  0  0  0
    4.5506   -0.6643   -1.3210 C   0  0  0  0  0  0  0  0  0  0  0  0
    4.9915   -1.6534   -1.9113 O   0  0  0  0  0  0  0  0  0  0  0  0
    3.9226   -0.7444   -0.1042 N   0  0  0  0  0  0  0  0  0  0  0  0
    3.7925   -1.9933    0.6323 C   0  0  1  0  0  0  0  0  0  0  0  0
    3.6498   -1.6852    2.1312 C   0  0  0  0  0  0  0  0  0  0  0  0
    4.8889   -1.0375    2.7608 C   0  0  0  0  0  0  0  0  0  0  0  0
    6.0743   -1.9963    2.8375 C   0  0  0  0  0  0  0  0  0  0  0  0
    7.2253   -1.3199    3.4195 N   0  0  0  0  0  0  0  0  0  0  0  0
    8.4370   -1.9191    3.4429 C   0  0  0  0  0  0  0  0  0  0  0  0
    8.7415   -2.9909    2.8045 N   0  0  0  0  0  0  0  0  0  0  0  0
    9.3097   -1.2389    4.2086 N   0  0  0  0  0  0  0  0  0  0  0  0
    2.5706   -2.8069    0.1486 C   0  0  0  0  0  0  0  0  0  0  0  0
    1.6215   -2.3266   -0.4765 O   0  0  0  0  0  0  0  0  0  0  0  0
    2.5638   -4.1218    0.5626 N   0  0  0  0  0  0  0  0  0  0  0  0
    1.5747   -5.1018    0.1090 C   0  0  1  0  0  0  0  0  0  0  0  0
    2.1548   -6.5229    0.2165 C   0  0  0  0  0  0  0  0  0  0  0  0
    1.4156   -7.5574   -0.6404 C   0  0  0  0  0  0  0  0  0  0  0  0
    2.0371   -8.9484   -0.4730 C   0  0  0  0  0  0  0  0  0  0  0  0
    1.2332  -10.0663   -1.1391 C   0  0  0  0  0  0  0  0  0  0  0  0
    1.1224   -9.8878   -2.5819 N   0  0  0  0  0  0  0  0  0  0  0  0
    0.2291   -4.9738    0.8853 C   0  0  0  0  0  0  0  0  0  0  0  0
   -0.4271   -5.9459    1.2583 O   0  0  0  0  0  0  0  0  0  0  0  0
   -0.2634   -3.6937    1.0133 N   0  0  0  0  0  0  0  0  0  0  0  0
   -1.6829   -3.3947    1.2601 C   0  0  1  0  0  0  0  0  0  0  0  0
   -1.8472   -2.2893    2.3215 C   0  0  0  0  0  0  0  0  0  0  0  0
   -3.2895   -2.1740    2.8214 C   0  0  0  0  0  0  0  0  0  0  0  0
   -1.3435   -0.9234    1.8570 C   0  0  0  0  0  0  0  0  0  0  0  0
   -2.3908   -3.0814   -0.0896 C   0  0  0  0  0  0  0  0  0  0  0  0
   -3.6103   -2.9651   -0.2006 O   0  0  0  0  0  0  0  0  0  0  0  0
   -1.5542   -2.8928   -1.1710 N   0  0  0  0  0  0  0  0  0  0  0  0
   -1.9721   -2.9877   -2.5694 C   0  0  1  0  0  0  0  0  0  0  0  0
   -2.7702   -4.2679   -2.8911 C   0  0  0  0  0  0  0  0  0  0  0  0
   -2.0640   -5.5899   -2.5349 C   0  0  0  0  0  0  0  0  0  0  0  0
   -0.7629   -5.7712   -3.3118 C   0  0  0  0  0  0  0  0  0  0  0  0
   -2.9992   -6.7694   -2.8140 C   0  0  0  0  0  0  0  0  0  0  0  0
   -2.7427   -1.7727   -3.1299 C   0  0  0  0  0  0  0  0  0  0  0  0
   -2.6198   -1.4437   -4.3105 O   0  0  0  0  0  0  0  0  0  0  0  0
   -3.6707   -1.1880   -2.2935 N   0  0  0  0  0  0  0  0  0  0  0  0
   -4.7918   -0.4621   -2.8811 C   0  0  0  0  0  0  0  0  0  0  0  0
   -4.4541    0.9286   -3.4294 C   0  0  0  0  0  0  0  0  0  0  0  0
   -5.1582    1.4840   -4.2687 O   0  0  0  0  0  0  0  0  0  0  0  0
   -3.3813    1.5376   -2.8117 N   0  0  0  0  0  0  0  0  0  0  0  0
   -2.8879    2.8652   -3.1823 C   0  0  1  0  0  0  0  0  0  0  0  0
   -2.5012    2.9698   -4.6661 C   0  0  0  0  0  0  0  0  0  0  0  0
   -1.6118    1.8100   -5.1140 C   0  0  0  0  0  0  0  0  0  0  0  0
   -1.0680    1.9761   -6.5126 C   0  0  0  0  0  0  0  0  0  0  0  0
   -1.0441    3.0328   -7.1317 O   0  0  0  0  0  0  0  0  0  0  0  0
   -0.5300    0.8337   -7.0315 N   0  0  0  0  0  0  0  0  0  0  0  0
   -3.9057    3.9552   -2.7412 C   0  0  0  0  0  0  0  0  0  0  0  0
   -4.9970    3.6936   -2.2279 O   0  0  0  0  0  0  0  0  0  0  0  0
   -3.4881    5.2585   -2.8688 N   0  0  0  0  0  0  0  0  0  0  0  0
   -4.3626    6.4136   -2.6931 C   0  0  1  0  0  0  0  0  0  0  0  0
   -5.4051    6.5891   -3.8176 C   0  0  0  0  0  0  0  0  0  0  0  0
   -4.8599    7.2248   -5.1160 C   0  0  0  0  0  0  0  0  0  0  0  0
   -6.0285    7.6695   -6.0022 C   0  0  0  0  0  0  0  0  0  0  0  0
   -3.9622    6.2805   -5.9123 C   0  0  0  0  0  0  0  0  0  0  0  0
   -5.0030    6.4442   -1.2751 C   0  0  0  0  0  0  0  0  0  0  0  0
   -4.4197    6.8763   -0.2793 O   0  0  0  0  0  0  0  0  0  0  0  0
   -6.2322    5.8254   -1.1656 N   0  0  0  0  0  0  0  0  0  0  0  0
   -6.9262    5.7418    0.1177 C   0  0  1  0  0  0  0  0  0  0  0  0
   -8.3759    5.2860   -0.0704 C   0  0  0  0  0  0  0  0  0  0  0  0
   -8.4265    4.0876   -0.8437 O   0  0  0  0  0  0  0  0  0  0  0  0
   -6.2197    4.8052    1.1159 C   0  0  0  0  0  0  0  0  0  0  0  0
   -6.3679    4.9287    2.3363 O   0  0  0  0  0  0  0  0  0  0  0  0
   -5.4498    3.8076    0.5655 N   0  0  0  0  0  0  0  0  0  0  0  0
   -4.6027    2.9281    1.3621 C   0  0  1  0  0  0  0  0  0  0  0  0
   -4.5099    1.5433    0.7422 C   0  0  0  0  0  0  0  0  0  0  0  0
   -3.1924    3.5178    1.6086 C   0  0  0  0  0  0  0  0  0  0  0  0
   -2.2255    2.8259    1.9303 O   0  0  0  0  0  0  0  0  0  0  0  0
   -3.1423    4.8964    1.6067 N   0  0  0  0  0  0  0  0  0  0  0  0
   -2.0063    5.6573    2.1164 C   0  0  1  0  0  0  0  0  0  0  0  0
   -1.1905    6.3282    1.0062 C   0  0  0  0  0  0  0  0  0  0  0  0
   -0.8680    5.4021   -0.1625 C   0  0  0  0  0  0  0  0  0  0  0  0
    0.2853    5.9445   -0.9922 C   0  0  0  0  0  0  0  0  0  0  0  0
    0.5465    5.0658   -2.1213 N   0  0  0  0  0  0  0  0  0  0  0  0
    0.1173    5.3763   -3.3593 C   0  0  0  0  0  0  0  0  0  0  0  0
   -0.8896    6.1287   -3.6314 N   0  0  0  0  0  0  0  0  0  0  0  0
    0.8610    4.8172   -4.3264 N   0  0  0  0  0  0  0  0  0  0  0  0
   -2.5113    6.7319    3.1052 C   0  0  0  0  0  0  0  0  0  0  0  0
   -1.8312    7.6998    3.4392 O   0  0  0  0  0  0  0  0  0  0  0  0
   -3.7535    6.4768    3.6597 N   0  0  0  0  0  0  0  0  0  0  0  0
   -4.4039    7.4739    4.5000 C   0  0  1  0  0  0  0  0  0  0  0  0
   -5.0314    8.5802    3.6314 C   0  0  0  0  0  0  0  0  0  0  0  0
   -5.7036    9.7142    4.4158 C   0  0  0  0  0  0  0  0  0  0  0  0
   -4.7982   10.4803    5.3860 C   0  0  0  0  0  0  0  0  0  0  0  0
   -3.6393   11.1985    4.6928 C   0  0  0  0  0  0  0  0  0  0  0  0
   -2.8704   11.9878    5.6498 N   0  0  0  0  0  0  0  0  0  0  0  0
   -5.4530    6.8200    5.4184 C   0  0  0  0  0  0  0  0  0  0  0  0
   -5.3933    6.9367    6.6426 O   0  0  0  0  0  0  0  0  0  0  0  0
   -6.4987    6.1917    4.7791 N   0  0  0  0  0  0  0  0  0  0  0  0
   -7.6576    5.6733    5.5115 C   0  0  1  0  0  0  0  0  0  0  0  0
   -8.9359    5.9940    4.7179 C   0  0  0  0  0  0  0  0  0  0  0  0
  -10.2530    5.5611    5.3924 C   0  0  0  0  0  0  0  0  0  0  0  0
  -11.4304    5.8590    4.4597 C   0  0  0  0  0  0  0  0  0  0  0  0
  -10.4743    6.2512    6.7386 C   0  0  0  0  0  0  0  0  0  0  0  0
   -7.5210    4.1593    5.7560 C   0  0  0  0  0  0  0  0  0  0  0  0
   -7.7078    3.6548    6.8628 O   0  0  0  0  0  0  0  0  0  0  0  0
   -7.2988    3.3943    4.6289 N   0  0  0  0  0  0  0  0  0  0  0  0
   -7.1615    1.9356    4.7207 C   0  0  1  0  0  0  0  0  0  0  0  0
   -7.6431    1.2840    3.4155 C   0  0  0  0  0  0  0  0  0  0  0  0
   -8.1188   -0.1818    3.5204 C   0  0  0  0  0  0  0  0  0  0  0  0
   -9.3800   -0.3220    4.3753 C   0  0  0  0  0  0  0  0  0  0  0  0
   -7.0356   -1.1394    4.0112 C   0  0  0  0  0  0  0  0  0  0  0  0
   -5.6773    1.6498    5.0483 C   0  0  0  0  0  0  0  0  0  0  0  0
   -4.8702    1.2048    4.2370 O   0  0  0  0  0  0  0  0  0  0  0  0
   -5.3238    2.0138    6.3319 N   0  0  0  0  0  0  0  0  0  0  0  0
   -4.0547    1.6070    6.9116 C   0  0  1  0  0  0  0  0  0  0  0  0
   -3.5790    2.6090    7.9683 C   0  0  0  0  0  0  0  0  0  0  0  0
   -3.5073    4.0469    7.4595 C   0  0  0  0  0  0  0  0  0  0  0  0
   -2.9680    4.9670    8.5336 C   0  0  0  0  0  0  0  0  0  0  0  0
   -2.3014    4.5904    9.4917 O   0  0  0  0  0  0  0  0  0  0  0  0
   -3.2396    6.2880    8.3376 N   0  0  0  0  0  0  0  0  0  0  0  0
   -4.2605    0.2368    7.5973 C   0  0  0  0  0  0  0  0  0  0  0  0
   -5.3699   -0.2295    7.8507 O   0  0  0  0  0  0  0  0  0  0  0  0
   -3.0957   -0.3802    7.9934 N   0  0  0  0  0  0  0  0  0  0  0  0
   -3.0948   -1.6371    8.7534 C   0  0  1  0  0  0  0  0  0  0  0  0
   -3.0348   -2.8569    7.8396 C   0  0  0  0  0  0  0  0  0  0  0  0
   -4.4081   -3.3198    7.4603 C   0  0  0  0  0  0  0  0  0  0  0  0
   -4.8666   -3.3682    6.3303 O   0  0  0  0  0  0  0  0  0  0  0  0
   -5.1339   -3.7429    8.5129 O   0  0  0  0  0  0  0  0  0  0  0  0
   -1.9242   -1.6046    9.7632 C   0  0  0  0  0  0  0  0  0  0  0  0
   -1.3745   -2.6013   10.2243 O   0  0  0  0  0  0  0  0  0  0  0  0
   -1.5985   -0.3321   10.1918 N   0  0  0  0  0  0  0  0  0  0  0  0
   -0.5292   -0.0190   11.1371 C   0  0  1  0  0  0  0  0  0  0  0  0
   -0.7347   -0.5881   12.5642 C   0  0  1  0  0  0  0  0  0  0  0  0
    0.3918   -0.1066   13.4913 C   0  0  0  0  0  0  0  0  0  0  0  0
   -2.1182   -0.1747   13.1201 C   0  0  0  0  0  0  0  0  0  0  0  0
   -2.4330   -0.7611   14.4901 C   0  0  0  0  0  0  0  0  0  0  0  0
    0.7973   -0.3977   10.4306 C   0  0  0  0  0  0  0  0  0  0  0  0
    1.3308    0.3441    9.5997 O   0  0  0  0  0  0  0  0  0  0  0  0
    1.2279   -1.6942   10.6277 N   0  0  0  0  0  0  0  0  0  0  0  0
    2.3403   -2.2598    9.8585 C   0  0  1  0  0  0  0  0  0  0  0  0
    2.9169   -3.4746   10.5928 C   0  0  0  0  0  0  0  0  0  0  0  0
    4.1523   -4.0230    9.8802 C   0  0  0  0  0  0  0  0  0  0  0  0
    4.9073   -5.4121   10.7872 S   0  0  0  0  0  0  0  0  0  0  0  0
    3.6766   -6.6967   10.4442 C   0  0  0  0  0  0  0  0  0  0  0  0
    1.7524   -2.6478    8.4852 C   0  0  0  0  0  0  0  0  0  0  0  0
    1.3586   -3.7790    8.2141 O   0  0  0  0  0  0  0  0  0  0  0  0
    1.6135   -1.5759    7.6216 N   0  0  0  0  0  0  0  0  0  0  0  0
    0.5957   -1.5991    6.5649 C   0  0  1  0  0  0  0  0  0  0  0  0
    0.1676   -0.1744    6.1789 C   0  0  0  0  0  0  0  0  0  0  0  0
   -0.5243    0.4509    7.2759 O   0  0  0  0  0  0  0  0  0  0  0  0
    0.9977   -2.4017    5.3094 C   0  0  0  0  0  0  0  0  0  0  0  0
    1.0116   -1.9200    4.1787 O   0  0  0  0  0  0  0  0  0  0  0  0
    1.2437   -3.7376    5.5487 N   0  0  0  0  0  0  0  0  0  0  0  0
    0.9468   -4.7443    4.5359 C   0  0  1  0  0  0  0  0  0  0  0  0
    2.0203   -5.8366    4.5155 C   0  0  0  0  0  0  0  0  0  0  0  0
    3.3709   -5.2653    4.0760 C   0  0  0  0  0  0  0  0  0  0  0  0
    4.4168   -6.3469    3.8405 C   0  0  0  0  0  0  0  0  0  0  0  0
    5.6786   -5.7501    3.4346 N   0  0  0  0  0  0  0  0  0  0  0  0
    5.9488   -5.4111    2.1530 C   0  0  0  0  0  0  0  0  0  0  0  0
    5.0887   -5.1893    1.2221 N   0  0  0  0  0  0  0  0  0  0  0  0
    7.2766   -5.3202    1.9451 N   0  0  0  0  0  0  0  0  0  0  0  0
   -0.4530   -5.3147    4.8657 C   0  0  0  0  0  0  0  0  0  0  0  0
   -1.1080   -4.9769    5.8514 O   0  0  0  0  0  0  0  0  0  0  0  0
   -0.9605   -6.2382    3.9992 N   0  0  0  0  0  0  0  0  0  0  0  0
    3.9811   -5.4362   -5.8922 N   0  0  0  0  0  0  0  0  0  0  0  0
    3.6511   -4.1272   -6.1586 C   0  0  0  0  0  0  0  0  0  0  0  0
    3.3323   -3.7425   -7.2863 O   0  0  0  0  0  0  0  0  0  0  0  0
    3.6924   -3.1687   -4.9367 C   0  0  2  0  0  0  0  0  0  0  0  0
    2.7820   -3.6733   -3.8242 C   0  0  0  0  0  0  0  0  0  0  0  0
    3.2210   -1.8608   -5.3924 N   0  0  0  0  0  0  0  0  0  0  0  0
    4.0819   -0.8470   -5.7610 C   0  0  0  0  0  0  0  0  0  0  0  0
    5.2969   -0.8657   -5.5472 O   0  0  0  0  0  0  0  0  0  0  0  0
    3.3735    0.2910   -6.5212 C   0  0  2  0  0  0  0  0  0  0  0  0
    3.4299   -0.0323   -8.0149 C   0  0  0  0  0  0  0  0  0  0  0  0
    2.6664    0.9972   -8.7919 C   0  0  0  0  0  0  0  0  0  0  0  0
    1.4662    0.9711   -9.0092 O   0  0  0  0  0  0  0  0  0  0  0  0
    3.4609    2.0187   -9.1625 O   0  0  0  0  0  0  0  0  0  0  0  0
    3.9897    1.5802   -6.2302 N   0  0  0  0  0  0  0  0  0  0  0  0
    3.2244    2.6778   -5.9017 C   0  0  0  0  0  0  0  0  0  0  0  0
    2.1148    2.5718   -5.3778 O   0  0  0  0  0  0  0  0  0  0  0  0
    3.8799    4.0368   -6.2325 C   0  0  2  0  0  0  0  0  0  0  0  0
    4.7497    4.4873   -5.0702 C   0  0  0  0  0  0  0  0  0  0  0  0
    2.8399    5.0225   -6.5116 N   0  0  0  0  0  0  0  0  0  0  0  0
    2.2038    5.0684   -7.7388 C   0  0  0  0  0  0  0  0  0  0  0  0
    2.5601    4.3970   -8.7084 O   0  0  0  0  0  0  0  0  0  0  0  0
    0.9846    6.0161   -7.8011 C   0  0  2  0  0  0  0  0  0  0  0  0
    1.4023    7.4679   -7.5000 C   0  0  0  0  0  0  0  0  0  0  0  0
    0.2401    8.4372   -7.5246 C   0  0  0  0  0  0  0  0  0  0  0  0
   -0.3151    8.8580   -8.7403 C   0  0  0  0  0  0  0  0  0  0  0  0
   -1.4206    9.7101   -8.7509 C   0  0  0  0  0  0  0  0  0  0  0  0
   -1.9715   10.1424   -7.5504 C   0  0  0  0  0  0  0  0  0  0  0  0
   -1.4339    9.7389   -6.3334 C   0  0  0  0  0  0  0  0  0  0  0  0
   -0.3280    8.8871   -6.3219 C   0  0  0  0  0  0  0  0  0  0  0  0
   -3.0534   10.9701   -7.6085 O   0  0  0  0  0  0  0  0  0  0  0  0
   -0.0584    5.5330   -6.8571 N   0  0  0  0  0  0  0  0  0  0  0  0
    1.4571   -8.9113   -6.1437 H   0  0  0  0  0  0  0  0  0  0  0  0
    2.2092   -7.8724   -4.9143 H   0  0  0  0  0  0  0  0  0  0  0  0
    0.4512   -7.9901   -5.0305 H   0  0  0  0  0  0  0  0  0  0  0  0
    1.2652   -5.8520   -5.9939 H   0  0  0  0  0  0  0  0  0  0  0  0
    0.3996   -6.8355   -7.1527 H   0  0  0  0  0  0  0  0  0  0  0  0
    2.3355   -5.8060   -8.1849 H   0  0  0  0  0  0  0  0  0  0  0  0
    2.8155   -8.8138   -8.0196 H   0  0  0  0  0  0  0  0  0  0  0  0
    3.1884   -7.7275   -9.3639 H   0  0  0  0  0  0  0  0  0  0  0  0
    1.5088   -8.0465   -8.9423 H   0  0  0  0  0  0  0  0  0  0  0  0
    4.0690   -7.4495   -6.2510 H   0  0  0  0  0  0  0  0  0  0  0  0
    4.3413   -4.6981   -8.5662 H   0  0  0  0  0  0  0  0  0  0  0  0
    6.2299   -6.2313  -10.2121 H   0  0  0  0  0  0  0  0  0  0  0  0
    6.3315   -4.1096  -11.6045 H   0  0  0  0  0  0  0  0  0  0  0  0
    5.4606   -3.2397  -10.3643 H   0  0  0  0  0  0  0  0  0  0  0  0
    3.0606   -3.2071  -10.3766 H   0  0  0  0  0  0  0  0  0  0  0  0
    0.9361   -3.9114  -11.4087 H   0  0  0  0  0  0  0  0  0  0  0  0
    0.9045   -5.7418  -13.0818 H   0  0  0  0  0  0  0  0  0  0  0  0
    3.0178   -6.8676  -13.7276 H   0  0  0  0  0  0  0  0  0  0  0  0
    5.1569   -6.1768  -12.7105 H   0  0  0  0  0  0  0  0  0  0  0  0
    6.4422   -4.4041   -7.4551 H   0  0  0  0  0  0  0  0  0  0  0  0
    9.0886   -4.7371   -7.0688 H   0  0  0  0  0  0  0  0  0  0  0  0
    9.7261   -2.9260   -8.5910 H   0  0  0  0  0  0  0  0  0  0  0  0
    7.6551   -1.5427   -8.6166 H   0  0  0  0  0  0  0  0  0  0  0  0
    7.9476   -1.0768   -6.9304 H   0  0  0  0  0  0  0  0  0  0  0  0
    9.0674   -0.5622   -8.1776 H   0  0  0  0  0  0  0  0  0  0  0  0
   10.9687   -1.7979   -7.2408 H   0  0  0  0  0  0  0  0  0  0  0  0
    9.5628   -2.7429   -5.0918 H   0  0  0  0  0  0  0  0  0  0  0  0
    7.1753   -3.0114   -3.2710 H   0  0  0  0  0  0  0  0  0  0  0  0
   10.0928   -3.2947   -2.3352 H   0  0  0  0  0  0  0  0  0  0  0  0
    9.0967   -4.6881   -2.7140 H   0  0  0  0  0  0  0  0  0  0  0  0
    9.3334   -1.8424   -0.5259 H   0  0  0  0  0  0  0  0  0  0  0  0
    8.5571   -2.6512    0.7834 H   0  0  0  0  0  0  0  0  0  0  0  0
    7.1437   -0.9472   -4.7195 H   0  0  0  0  0  0  0  0  0  0  0  0
    8.8178    1.2378   -3.5227 H   0  0  0  0  0  0  0  0  0  0  0  0
    8.7279    1.3629   -5.9799 H   0  0  0  0  0  0  0  0  0  0  0  0
    7.8867    2.7489   -5.2723 H   0  0  0  0  0  0  0  0  0  0  0  0
    6.4849    0.4101   -6.0256 H   0  0  0  0  0  0  0  0  0  0  0  0
    5.7623   -0.3016   -3.3647 H   0  0  0  0  0  0  0  0  0  0  0  0
    5.2567    1.3369   -1.0814 H   0  0  0  0  0  0  0  0  0  0  0  0
    3.6799    2.3503   -2.9032 H   0  0  0  0  0  0  0  0  0  0  0  0
    2.8757    0.7915   -2.9598 H   0  0  0  0  0  0  0  0  0  0  0  0
    4.0981    3.2301   -0.2956 H   0  0  0  0  0  0  0  0  0  0  0  0
    2.7764    3.7641    1.7208 H   0  0  0  0  0  0  0  0  0  0  0  0
   -0.4505    1.3304    0.2770 H   0  0  0  0  0  0  0  0  0  0  0  0
    0.8695    0.7223   -1.7117 H   0  0  0  0  0  0  0  0  0  0  0  0
   -0.5376    2.6585    2.1365 H   0  0  0  0  0  0  0  0  0  0  0  0
    3.3502    0.0308    0.2097 H   0  0  0  0  0  0  0  0  0  0  0  0
    4.6820   -2.5969    0.4290 H   0  0  0  0  0  0  0  0  0  0  0  0
    3.4043   -2.5922    2.6890 H   0  0  0  0  0  0  0  0  0  0  0  0
    2.7993   -1.0051    2.2749 H   0  0  0  0  0  0  0  0  0  0  0  0
    5.1697   -0.1315    2.2104 H   0  0  0  0  0  0  0  0  0  0  0  0
    4.6299   -0.7086    3.7756 H   0  0  0  0  0  0  0  0  0  0  0  0
    6.3338   -2.3524    1.8366 H   0  0  0  0  0  0  0  0  0  0  0  0
    5.8097   -2.8569    3.4596 H   0  0  0  0  0  0  0  0  0  0  0  0
    7.0011   -0.8683    4.2996 H   0  0  0  0  0  0  0  0  0  0  0  0
    9.7164   -3.2291    3.0136 H   0  0  0  0  0  0  0  0  0  0  0  0
    9.1796   -0.2342    4.1600 H   0  0  0  0  0  0  0  0  0  0  0  0
   10.2842   -1.4786    4.0785 H   0  0  0  0  0  0  0  0  0  0  0  0
    3.4545   -4.5016    0.9189 H   0  0  0  0  0  0  0  0  0  0  0  0
    1.3546   -4.8774   -0.9419 H   0  0  0  0  0  0  0  0  0  0  0  0
    3.1999   -6.5143   -0.1166 H   0  0  0  0  0  0  0  0  0  0  0  0
    2.1622   -6.8426    1.2658 H   0  0  0  0  0  0  0  0  0  0  0  0
    1.4754   -7.2521   -1.6907 H   0  0  0  0  0  0  0  0  0  0  0  0
    0.3555   -7.6002   -0.3733 H   0  0  0  0  0  0  0  0  0  0  0  0
    2.1185   -9.1821    0.5960 H   0  0  0  0  0  0  0  0  0  0  0  0
    3.0598   -8.9411   -0.8710 H   0  0  0  0  0  0  0  0  0  0  0  0
    1.7293  -11.0228   -0.9416 H   0  0  0  0  0  0  0  0  0  0  0  0
    0.2307  -10.1239   -0.7005 H   0  0  0  0  0  0  0  0  0  0  0  0
    0.5124   -9.0964   -2.7792 H   0  0  0  0  0  0  0  0  0  0  0  0
    0.6555  -10.7018   -2.9816 H   0  0  0  0  0  0  0  0  0  0  0  0
    0.3377   -2.9250    0.7267 H   0  0  0  0  0  0  0  0  0  0  0  0
   -2.1536   -4.3141    1.6292 H   0  0  0  0  0  0  0  0  0  0  0  0
   -1.2462   -2.5832    3.1899 H   0  0  0  0  0  0  0  0  0  0  0  0
   -3.6715   -3.1479    3.1447 H   0  0  0  0  0  0  0  0  0  0  0  0
   -3.9590   -1.7794    2.0514 H   0  0  0  0  0  0  0  0  0  0  0  0
   -3.3428   -1.4968    3.6813 H   0  0  0  0  0  0  0  0  0  0  0  0
   -1.9059   -0.5611    0.9908 H   0  0  0  0  0  0  0  0  0  0  0  0
   -0.2843   -0.9626    1.5861 H   0  0  0  0  0  0  0  0  0  0  0  0
   -1.4479   -0.1810    2.6559 H   0  0  0  0  0  0  0  0  0  0  0  0
   -0.5595   -2.9953   -0.9981 H   0  0  0  0  0  0  0  0  0  0  0  0
   -1.0300   -2.9976   -3.1319 H   0  0  0  0  0  0  0  0  0  0  0  0
   -3.7408   -4.2352   -2.3802 H   0  0  0  0  0  0  0  0  0  0  0  0
   -3.0110   -4.2715   -3.9634 H   0  0  0  0  0  0  0  0  0  0  0  0
   -1.8312   -5.6039   -1.4640 H   0  0  0  0  0  0  0  0  0  0  0  0
   -0.0156   -5.0323   -3.0117 H   0  0  0  0  0  0  0  0  0  0  0  0
   -0.9261   -5.6759   -4.3904 H   0  0  0  0  0  0  0  0  0  0  0  0
   -0.3367   -6.7600   -3.1214 H   0  0  0  0  0  0  0  0  0  0  0  0
   -3.2641   -6.8251   -3.8754 H   0  0  0  0  0  0  0  0  0  0  0  0
   -3.9252   -6.6767   -2.2367 H   0  0  0  0  0  0  0  0  0  0  0  0
   -2.5256   -7.7162   -2.5328 H   0  0  0  0  0  0  0  0  0  0  0  0
   -3.8944   -1.7432   -1.4639 H   0  0  0  0  0  0  0  0  0  0  0  0
   -5.2092   -1.0668   -3.6933 H   0  0  0  0  0  0  0  0  0  0  0  0
   -5.5461   -0.3385   -2.0975 H   0  0  0  0  0  0  0  0  0  0  0  0
   -2.8065    0.9407   -2.2289 H   0  0  0  0  0  0  0  0  0  0  0  0
   -1.9910    3.0165   -2.5679 H   0  0  0  0  0  0  0  0  0  0  0  0
   -1.9869    3.9180   -4.8442 H   0  0  0  0  0  0  0  0  0  0  0  0
   -3.3961    3.0066   -5.2992 H   0  0  0  0  0  0  0  0  0  0  0  0
   -2.1807    0.8780   -5.0912 H   0  0  0  0  0  0  0  0  0  0  0  0
   -0.7551    1.7085   -4.4372 H   0  0  0  0  0  0  0  0  0  0  0  0
   -0.8901   -0.0656   -6.7402 H   0  0  0  0  0  0  0  0  0  0  0  0
   -0.1707    0.9002   -7.9843 H   0  0  0  0  0  0  0  0  0  0  0  0
   -2.5191    5.4606   -3.1437 H   0  0  0  0  0  0  0  0  0  0  0  0
   -3.7013    7.2902   -2.7130 H   0  0  0  0  0  0  0  0  0  0  0  0
   -6.2007    7.2473   -3.4428 H   0  0  0  0  0  0  0  0  0  0  0  0
   -5.8860    5.6309   -4.0523 H   0  0  0  0  0  0  0  0  0  0  0  0
   -4.2807    8.1205   -4.8587 H   0  0  0  0  0  0  0  0  0  0  0  0
   -6.6523    6.8177   -6.2939 H   0  0  0  0  0  0  0  0  0  0  0  0
   -6.6631    8.3918   -5.4779 H   0  0  0  0  0  0  0  0  0  0  0  0
   -5.6636    8.1523   -6.9152 H   0  0  0  0  0  0  0  0  0  0  0  0
   -4.4695    5.3344   -6.1279 H   0  0  0  0  0  0  0  0  0  0  0  0
   -3.0417    6.0607   -5.3724 H   0  0  0  0  0  0  0  0  0  0  0  0
   -3.6706    6.7319   -6.8670 H   0  0  0  0  0  0  0  0  0  0  0  0
   -6.3884    5.0441   -1.8085 H   0  0  0  0  0  0  0  0  0  0  0  0
   -6.9070    6.7424    0.5677 H   0  0  0  0  0  0  0  0  0  0  0  0
   -8.8649    5.0997    0.8913 H   0  0  0  0  0  0  0  0  0  0  0  0
   -8.9409    6.0523   -0.6117 H   0  0  0  0  0  0  0  0  0  0  0  0
   -9.3645    3.8750   -0.9955 H   0  0  0  0  0  0  0  0  0  0  0  0
   -5.3597    3.7693   -0.4536 H   0  0  0  0  0  0  0  0  0  0  0  0
   -5.0595    2.8470    2.3513 H   0  0  0  0  0  0  0  0  0  0  0  0
   -4.0049    0.8453    1.4173 H   0  0  0  0  0  0  0  0  0  0  0  0
   -3.9375    1.5702   -0.1877 H   0  0  0  0  0  0  0  0  0  0  0  0
   -5.5028    1.1408    0.5168 H   0  0  0  0  0  0  0  0  0  0  0  0
   -3.8188    5.4113    1.0461 H   0  0  0  0  0  0  0  0  0  0  0  0
   -1.3597    4.9869    2.6935 H   0  0  0  0  0  0  0  0  0  0  0  0
   -0.2620    6.7141    1.4470 H   0  0  0  0  0  0  0  0  0  0  0  0
   -1.7276    7.2041    0.6189 H   0  0  0  0  0  0  0  0  0  0  0  0
   -0.6121    4.4073    0.2019 H   0  0  0  0  0  0  0  0  0  0  0  0
   -1.7578    5.2791   -0.7867 H   0  0  0  0  0  0  0  0  0  0  0  0
    1.1898    5.9920   -0.3743 H   0  0  0  0  0  0  0  0  0  0  0  0
    0.0808    6.9697   -1.3239 H   0  0  0  0  0  0  0  0  0  0  0  0
    1.4792    4.6697   -2.0932 H   0  0  0  0  0  0  0  0  0  0  0  0
   -0.9106    6.2257   -4.6570 H   0  0  0  0  0  0  0  0  0  0  0  0
    1.1287    3.8437   -4.1745 H   0  0  0  0  0  0  0  0  0  0  0  0
    0.4158    4.8715   -5.2520 H   0  0  0  0  0  0  0  0  0  0  0  0
   -4.2833    5.7048    3.2685 H   0  0  0  0  0  0  0  0  0  0  0  0
   -3.6313    7.9048    5.1472 H   0  0  0  0  0  0  0  0  0  0  0  0
   -4.2700    9.0064    2.9670 H   0  0  0  0  0  0  0  0  0  0  0  0
   -5.7820    8.1399    2.9612 H   0  0  0  0  0  0  0  0  0  0  0  0
   -6.1289   10.4243    3.6953 H   0  0  0  0  0  0  0  0  0  0  0  0
   -6.5549    9.3121    4.9783 H   0  0  0  0  0  0  0  0  0  0  0  0
   -4.4159    9.8050    6.1601 H   0  0  0  0  0  0  0  0  0  0  0  0
   -5.4196   11.2207    5.9070 H   0  0  0  0  0  0  0  0  0  0  0  0
   -4.0216   11.8645    3.9120 H   0  0  0  0  0  0  0  0  0  0  0  0
   -2.9662   10.4814    4.2132 H   0  0  0  0  0  0  0  0  0  0  0  0
   -2.4474   11.3652    6.3380 H   0  0  0  0  0  0  0  0  0  0  0  0
   -3.4920   12.6047    6.1702 H   0  0  0  0  0  0  0  0  0  0  0  0
   -6.4004    5.9419    3.7965 H   0  0  0  0  0  0  0  0  0  0  0  0
   -7.6879    6.1640    6.4897 H   0  0  0  0  0  0  0  0  0  0  0  0
   -8.8773    5.5207    3.7282 H   0  0  0  0  0  0  0  0  0  0  0  0
   -8.9689    7.0758    4.5275 H   0  0  0  0  0  0  0  0  0  0  0  0
  -10.2340    4.4775    5.5603 H   0  0  0  0  0  0  0  0  0  0  0  0
  -11.5152    6.9319    4.2559 H   0  0  0  0  0  0  0  0  0  0  0  0
  -12.3735    5.5227    4.9035 H   0  0  0  0  0  0  0  0  0  0  0  0
  -11.3098    5.3400    3.5028 H   0  0  0  0  0  0  0  0  0  0  0  0
  -10.4362    7.3411    6.6371 H   0  0  0  0  0  0  0  0  0  0  0  0
   -9.7195    5.9495    7.4708 H   0  0  0  0  0  0  0  0  0  0  0  0
  -11.4519    5.9851    7.1552 H   0  0  0  0  0  0  0  0  0  0  0  0
   -6.9041    3.8568    3.8117 H   0  0  0  0  0  0  0  0  0  0  0  0
   -7.7691    1.5866    5.5615 H   0  0  0  0  0  0  0  0  0  0  0  0
   -6.8593    1.3399    2.6527 H   0  0  0  0  0  0  0  0  0  0  0  0
   -8.4816    1.8703    3.0139 H   0  0  0  0  0  0  0  0  0  0  0  0
   -8.3880   -0.4937    2.5021 H   0  0  0  0  0  0  0  0  0  0  0  0
  -10.1584    0.3715    4.0405 H   0  0  0  0  0  0  0  0  0  0  0  0
   -9.7839   -1.3373    4.2964 H   0  0  0  0  0  0  0  0  0  0  0  0
   -9.1819   -0.1296    5.4341 H   0  0  0  0  0  0  0  0  0  0  0  0
   -7.3842   -2.1763    3.9510 H   0  0  0  0  0  0  0  0  0  0  0  0
   -6.7611   -0.9464    5.0529 H   0  0  0  0  0  0  0  0  0  0  0  0
   -6.1371   -1.0589    3.3923 H   0  0  0  0  0  0  0  0  0  0  0  0
   -6.0971    2.1742    6.9782 H   0  0  0  0  0  0  0  0  0  0  0  0
   -3.3065    1.4965    6.1184 H   0  0  0  0  0  0  0  0  0  0  0  0
   -2.5924    2.3023    8.3379 H   0  0  0  0  0  0  0  0  0  0  0  0
   -4.2471    2.5754    8.8403 H   0  0  0  0  0  0  0  0  0  0  0  0
   -4.5033    4.3921    7.1649 H   0  0  0  0  0  0  0  0  0  0  0  0
   -2.8452    4.1143    6.5891 H   0  0  0  0  0  0  0  0  0  0  0  0
   -4.0492    6.5646    7.7794 H   0  0  0  0  0  0  0  0  0  0  0  0
   -2.9889    6.9126    9.0917 H   0  0  0  0  0  0  0  0  0  0  0  0
   -2.2042   -0.0408    7.6180 H   0  0  0  0  0  0  0  0  0  0  0  0
   -4.0018   -1.6527    9.3709 H   0  0  0  0  0  0  0  0  0  0  0  0
   -2.4922   -2.6306    6.9151 H   0  0  0  0  0  0  0  0  0  0  0  0
   -2.5281   -3.7100    8.3041 H   0  0  0  0  0  0  0  0  0  0  0  0
   -5.9991   -3.9752    8.1146 H   0  0  0  0  0  0  0  0  0  0  0  0
   -2.1224    0.4395    9.7919 H   0  0  0  0  0  0  0  0  0  0  0  0
   -0.5198    1.0770   11.2137 H   0  0  0  0  0  0  0  0  0  0  0  0
   -0.6992   -1.6834   12.5409 H   0  0  0  0  0  0  0  0  0  0  0  0
    0.3536    0.9796   13.6270 H   0  0  0  0  0  0  0  0  0  0  0  0
    0.3221   -0.5752   14.4776 H   0  0  0  0  0  0  0  0  0  0  0  0
    1.3790   -0.3611   13.0939 H   0  0  0  0  0  0  0  0  0  0  0  0
   -2.9052   -0.5084   12.4340 H   0  0  0  0  0  0  0  0  0  0  0  0
   -2.1893    0.9186   13.1737 H   0  0  0  0  0  0  0  0  0  0  0  0
   -3.4687   -0.5352   14.7641 H   0  0  0  0  0  0  0  0  0  0  0  0
   -1.7902   -0.3385   15.2675 H   0  0  0  0  0  0  0  0  0  0  0  0
   -2.3128   -1.8489   14.4895 H   0  0  0  0  0  0  0  0  0  0  0  0
    0.4628   -2.3480   10.8201 H   0  0  0  0  0  0  0  0  0  0  0  0
    3.1116   -1.4920    9.7244 H   0  0  0  0  0  0  0  0  0  0  0  0
    3.1831   -3.1755   11.6153 H   0  0  0  0  0  0  0  0  0  0  0  0
    2.1468   -4.2502   10.6845 H   0  0  0  0  0  0  0  0  0  0  0  0
    3.9272   -4.3508    8.8607 H   0  0  0  0  0  0  0  0  0  0  0  0
    4.9117   -3.2371    9.8056 H   0  0  0  0  0  0  0  0  0  0  0  0
    4.0476   -7.6533   10.8224 H   0  0  0  0  0  0  0  0  0  0  0  0
    3.5109   -6.7921    9.3680 H   0  0  0  0  0  0  0  0  0  0  0  0
    2.7328   -6.4746   10.9472 H   0  0  0  0  0  0  0  0  0  0  0  0
    1.7518   -0.6741    8.0775 H   0  0  0  0  0  0  0  0  0  0  0  0
   -0.2782   -2.1033    6.9931 H   0  0  0  0  0  0  0  0  0  0  0  0
   -0.5313   -0.1897    5.3362 H   0  0  0  0  0  0  0  0  0  0  0  0
    1.0225    0.4522    5.9023 H   0  0  0  0  0  0  0  0  0  0  0  0
    0.1646    0.7359    7.9154 H   0  0  0  0  0  0  0  0  0  0  0  0
    1.0692   -4.0417    6.5118 H   0  0  0  0  0  0  0  0  0  0  0  0
    0.8778   -4.2631    3.5562 H   0  0  0  0  0  0  0  0  0  0  0  0
    2.1175   -6.2971    5.5068 H   0  0  0  0  0  0  0  0  0  0  0  0
    1.7236   -6.6349    3.8248 H   0  0  0  0  0  0  0  0  0  0  0  0
    3.7418   -4.5544    4.8248 H   0  0  0  0  0  0  0  0  0  0  0  0
    3.2267   -4.7005    3.1540 H   0  0  0  0  0  0  0  0  0  0  0  0
    4.5774   -6.9013    4.7724 H   0  0  0  0  0  0  0  0  0  0  0  0
    4.0771   -7.0719    3.0917 H   0  0  0  0  0  0  0  0  0  0  0  0
    6.4801   -6.2019    3.8626 H   0  0  0  0  0  0  0  0  0  0  0  0
    5.6440   -4.9936    0.3701 H   0  0  0  0  0  0  0  0  0  0  0  0
    7.5173   -5.0229    0.9966 H   0  0  0  0  0  0  0  0  0  0  0  0
    7.7232   -4.6334    2.5641 H   0  0  0  0  0  0  0  0  0  0  0  0
   -1.9238   -6.5011    4.1662 H   0  0  0  0  0  0  0  0  0  0  0  0
   -0.6829   -6.2387    3.0167 H   0  0  0  0  0  0  0  0  0  0  0  0
    4.6259   -5.5767   -5.1181 H   0  0  0  0  0  0  0  0  0  0  0  0
    4.7166   -3.0773   -4.5725 H   0  0  0  0  0  0  0  0  0  0  0  0
    2.7227   -2.9447   -3.0100 H   0  0  0  0  0  0  0  0  0  0  0  0
    1.7642   -3.8390   -4.1941 H   0  0  0  0  0  0  0  0  0  0  0  0
    3.1434   -4.6187   -3.4072 H   0  0  0  0  0  0  0  0  0  0  0  0
    2.3100   -1.8734   -5.8382 H   0  0  0  0  0  0  0  0  0  0  0  0
    2.3270    0.3247   -6.1956 H   0  0  0  0  0  0  0  0  0  0  0  0
    4.4633   -0.0722   -8.3818 H   0  0  0  0  0  0  0  0  0  0  0  0
    2.9929   -1.0139   -8.2320 H   0  0  0  0  0  0  0  0  0  0  0  0
    2.8878    2.8083   -9.3505 H   0  0  0  0  0  0  0  0  0  0  0  0
    4.9585    1.7273   -6.5233 H   0  0  0  0  0  0  0  0  0  0  0  0
    4.4938    3.9232   -7.1336 H   0  0  0  0  0  0  0  0  0  0  0  0
    5.2153    5.4550   -5.2840 H   0  0  0  0  0  0  0  0  0  0  0  0
    4.1617    4.5966   -4.1518 H   0  0  0  0  0  0  0  0  0  0  0  0
    5.5433    3.7625   -4.8709 H   0  0  0  0  0  0  0  0  0  0  0  0
    2.2554    5.2849   -5.7183 H   0  0  0  0  0  0  0  0  0  0  0  0
    0.5743    5.9524   -8.8168 H   0  0  0  0  0  0  0  0  0  0  0  0
    1.9044    7.5355   -6.5259 H   0  0  0  0  0  0  0  0  0  0  0  0
    2.1522    7.7951   -8.2325 H   0  0  0  0  0  0  0  0  0  0  0  0
    0.1038    8.5224   -9.6862 H   0  0  0  0  0  0  0  0  0  0  0  0
   -1.8522   10.0346   -9.6936 H   0  0  0  0  0  0  0  0  0  0  0  0
   -1.8579   10.0683   -5.3902 H   0  0  0  0  0  0  0  0  0  0  0  0
    0.0822    8.5651   -5.3657 H   0  0  0  0  0  0  0  0  0  0  0  0
   -3.2980   11.2201   -6.7026 H   0  0  0  0  0  0  0  0  0  0  0  0
   -0.9019    6.0841   -7.0510 H   0  0  0  0  0  0  0  0  0  0  0  0
   -0.3434    4.5849   -7.1803 H   0  0  0  0  0  0  0  0  0  0  0  0
  1  2  1  0
  2  3  1  0
  3  4  1  0
  3  5  1  0
  5  6  1  0
  6  7  2  0
  6  8  1  0
  8  9  1  0
  9 10  1  0
 10 11  1  0
 11 12  2  0
 12 13  1  0
 13 14  2  0
 14 15  1  0
 15 16  2  0
  9 17  1  0
 17 18  2  0
 17 19  1  0
 19 20  1  0
 20 21  1  0
 21 22  1  0
 21 23  1  0
 20 24  1  0
 24 25  2  0
 24 26  1  0
 26 27  1  0
 27 28  1  0
 28 29  1  0
 29 30  2  0
 29 31  1  0
 27 32  1  0
 32 33  2  0
 32 34  1  0
 34 35  1  0
 35 36  1  0
 36 37  1  0
 35 38  1  0
 38 39  2  0
 38 40  1  0
 40 41  1  0
 41 42  1  0
 42 43  1  0
 43 44  1  0
 44 45  2  0
 45 46  1  0
 46 47  2  0
 47 48  1  0
 46 49  1  0
 41 50  1  0
 50 51  2  0
 50 52  1  0
 52 53  1  0
 53 54  1  0
 54 55  1  0
 55 56  1  0
 56 57  1  0
 57 58  1  0
 58 59  2  3
 58 60  1  0
 53 61  1  0
 61 62  2  0
 61 63  1  0
 63 64  1  0
 64 65  1  0
 65 66  1  0
 66 67  1  0
 67 68  1  0
 68 69  1  0
 64 70  1  0
 70 71  2  0
 70 72  1  0
 72 73  1  0
 73 74  1  0
 74 75  1  0
 74 76  1  0
 73 77  1  0
 77 78  2  0
 77 79  1  0
 79 80  1  0
 80 81  1  0
 81 82  1  0
 82 83  1  0
 82 84  1  0
 80 85  1  0
 85 86  2  0
 85 87  1  0
 87 88  1  0
 88 89  1  0
 89 90  2  0
 89 91  1  0
 91 92  1  0
 92 93  1  0
 93 94  1  0
 94 95  1  0
 95 96  2  0
 95 97  1  0
 92 98  1  0
 98 99  2  0
 98100  1  0
100101  1  0
101102  1  0
102103  1  0
103104  1  0
103105  1  0
101106  1  0
106107  2  0
106108  1  0
108109  1  0
109110  1  0
110111  1  0
109112  1  0
112113  2  0
112114  1  0
114115  1  0
115116  1  0
115117  1  0
117118  2  0
117119  1  0
119120  1  0
120121  1  0
121122  1  0
122123  1  0
123124  1  0
124125  1  0
125126  2  3
125127  1  0
120128  1  0
128129  2  0
128130  1  0
130131  1  0
131132  1  0
132133  1  0
133134  1  0
134135  1  0
135136  1  0
131137  1  0
137138  2  0
137139  1  0
139140  1  0
140141  1  0
141142  1  0
142143  1  0
142144  1  0
140145  1  0
145146  2  0
145147  1  0
147148  1  0
148149  1  0
149150  1  0
150151  1  0
150152  1  0
148153  1  0
153154  2  0
153155  1  0
155156  1  0
156157  1  0
157158  1  0
158159  1  0
159160  2  0
159161  1  0
156162  1  0
162163  2  0
162164  1  0
164165  1  0
165166  1  0
166167  1  0
167168  2  0
167169  1  0
165170  1  0
170171  2  0
170172  1  0
172173  1  0
173174  1  0
174175  1  0
174176  1  0
176177  1  0
173178  1  0
178179  2  0
178180  1  0
180181  1  0
181182  1  0
182183  1  0
183184  1  0
184185  1  0
181186  1  0
186187  2  0
186188  1  0
188189  1  0
189190  1  0
190191  1  0
189192  1  0
192193  2  0
192194  1  0
194195  1  0
195196  1  0
196197  1  0
197198  1  0
198199  1  0
199200  1  0
200201  2  3
200202  1  0
195203  1  0
203204  2  0
203205  1  0
  5206  1  0
206207  1  0
207208  2  0
207209  1  0
209210  1  0
209211  1  0
211212  1  0
212213  2  0
212214  1  0
214215  1  0
215216  1  0
216217  2  0
216218  1  0
214219  1  0
219220  1  0
220221  2  0
220222  1  0
222223  1  0
222224  1  0
224225  1  0
225226  2  0
225227  1  0
227228  1  0
228229  1  0
229230  1  0
230231  2  0
231232  1  0
232233  2  0
233234  1  0
232235  1  0
227236  1  0
 16 11  1  0
 48 43  2  0
234229  2  0
  1237  1  0
  1238  1  0
  1239  1  0
  2240  1  0
  2241  1  0
  3242  1  6
  4243  1  0
  4244  1  0
  4245  1  0
  5246  1  1
  8247  1  0
  9248  1  6
 10249  1  0
 10250  1  0
 12251  1  0
 13252  1  0
 14253  1  0
 15254  1  0
 16255  1  0
 19256  1  0
 20257  1  1
 21258  1  6
 22259  1  0
 22260  1  0
 22261  1  0
 23262  1  0
 26263  1  0
 27264  1  6
 28265  1  0
 28266  1  0
 31267  1  0
 31268  1  0
 34269  1  0
 35270  1  1
 36271  1  0
 36272  1  0
 37273  1  0
 40274  1  0
 41275  1  1
 42276  1  0
 42277  1  0
 44278  1  0
 45279  1  0
 47280  1  0
 48281  1  0
 49282  1  0
 52283  1  0
 53284  1  1
 54285  1  0
 54286  1  0
 55287  1  0
 55288  1  0
 56289  1  0
 56290  1  0
 57291  1  0
 59292  1  0
 60293  1  0
 60294  1  0
 63295  1  0
 64296  1  6
 65297  1  0
 65298  1  0
 66299  1  0
 66300  1  0
 67301  1  0
 67302  1  0
 68303  1  0
 68304  1  0
 69305  1  0
 69306  1  0
 72307  1  0
 73308  1  1
 74309  1  0
 75310  1  0
 75311  1  0
 75312  1  0
 76313  1  0
 76314  1  0
 76315  1  0
 79316  1  0
 80317  1  6
 81318  1  0
 81319  1  0
 82320  1  0
 83321  1  0
 83322  1  0
 83323  1  0
 84324  1  0
 84325  1  0
 84326  1  0
 87327  1  0
 88328  1  0
 88329  1  0
 91330  1  0
 92331  1  1
 93332  1  0
 93333  1  0
 94334  1  0
 94335  1  0
 97336  1  0
 97337  1  0
100338  1  0
101339  1  1
102340  1  0
102341  1  0
103342  1  0
104343  1  0
104344  1  0
104345  1  0
105346  1  0
105347  1  0
105348  1  0
108349  1  0
109350  1  1
110351  1  0
110352  1  0
111353  1  0
114354  1  0
115355  1  1
116356  1  0
116357  1  0
116358  1  0
119359  1  0
120360  1  1
121361  1  0
121362  1  0
122363  1  0
122364  1  0
123365  1  0
123366  1  0
124367  1  0
126368  1  0
127369  1  0
127370  1  0
130371  1  0
131372  1  1
132373  1  0
132374  1  0
133375  1  0
133376  1  0
134377  1  0
134378  1  0
135379  1  0
135380  1  0
136381  1  0
136382  1  0
139383  1  0
140384  1  1
141385  1  0
141386  1  0
142387  1  0
143388  1  0
143389  1  0
143390  1  0
144391  1  0
144392  1  0
144393  1  0
147394  1  0
148395  1  1
149396  1  0
149397  1  0
150398  1  0
151399  1  0
151400  1  0
151401  1  0
152402  1  0
152403  1  0
152404  1  0
155405  1  0
156406  1  6
157407  1  0
157408  1  0
158409  1  0
158410  1  0
161411  1  0
161412  1  0
164413  1  0
165414  1  1
166415  1  0
166416  1  0
169417  1  0
172418  1  0
173419  1  1
174420  1  6
175421  1  0
175422  1  0
175423  1  0
176424  1  0
176425  1  0
177426  1  0
177427  1  0
177428  1  0
180429  1  0
181430  1  6
182431  1  0
182432  1  0
183433  1  0
183434  1  0
185435  1  0
185436  1  0
185437  1  0
188438  1  0
189439  1  1
190440  1  0
190441  1  0
191442  1  0
194443  1  0
195444  1  6
196445  1  0
196446  1  0
197447  1  0
197448  1  0
198449  1  0
198450  1  0
199451  1  0
201452  1  0
202453  1  0
202454  1  0
205455  1  0
205456  1  0
206457  1  0
209458  1  1
210459  1  0
210460  1  0
210461  1  0
211462  1  0
214463  1  1
215464  1  0
215465  1  0
218466  1  0
219467  1  0
222468  1  6
223469  1  0
223470  1  0
223471  1  0
224472  1  0
227473  1  6
228474  1  0
228475  1  0
230476  1  0
231477  1  0
233478  1  0
234479  1  0
235480  1  0
236481  1  0
236482  1  0
M  END
