
     RDKit          3D

 95 96  0  0  0  0  0  0  0  0999 V2000
    2.9085   -4.9853    3.1676 C   0  0  0  0  0  0  0  0  0  0  0  0
    2.4391   -4.0322    4.2381 C   0  0  0  0  0  0  0  0  0  0  0  0
    3.2602   -3.8614    5.3634 C   0  0  0  0  0  0  0  0  0  0  0  0
    2.8769   -3.0159    6.3907 C   0  0  0  0  0  0  0  0  0  0  0  0
    1.6705   -2.3346    6.3317 C   0  0  0  0  0  0  0  0  0  0  0  0
    0.8139   -2.4938    5.2269 C   0  0  0  0  0  0  0  0  0  0  0  0
    1.2013   -3.3355    4.1535 C   0  0  0  0  0  0  0  0  0  0  0  0
    0.3414   -3.4661    2.8966 C   0  0  0  0  0  0  0  0  0  0  0  0
    0.6032   -2.4132    1.7883 C   0  0  1  0  0  0  0  0  0  0  0  0
   -0.4624   -1.2872    1.7720 C   0  0  0  0  0  0  0  0  0  0  0  0
   -1.5469   -1.3746    2.3442 O   0  0  0  0  0  0  0  0  0  0  0  0
   -0.1627   -0.2245    0.9368 N   0  0  0  0  0  0  0  0  0  0  0  0
   -1.1923    0.7580    0.6035 C   0  0  1  0  0  0  0  0  0  0  0  0
   -0.5829    2.1512    0.3678 C   0  0  0  0  0  0  0  0  0  0  0  0
    0.3393    2.2716   -0.8551 C   0  0  0  0  0  0  0  0  0  0  0  0
   -0.3944    2.8015   -2.0866 C   0  0  0  0  0  0  0  0  0  0  0  0
    0.3946    2.5625   -3.3719 C   0  0  0  0  0  0  0  0  0  0  0  0
   -0.4414    2.8669   -4.5341 N   0  0  0  0  0  0  0  0  0  0  0  0
   -2.0238    0.2353   -0.5914 C   0  0  0  0  0  0  0  0  0  0  0  0
   -1.5884   -0.5831   -1.4016 O   0  0  0  0  0  0  0  0  0  0  0  0
   -3.2848    0.7834   -0.7081 N   0  0  0  0  0  0  0  0  0  0  0  0
   -4.1640    0.4276   -1.8337 C   0  0  1  0  0  0  0  0  0  0  0  0
   -5.6332    0.6406   -1.4474 C   0  0  0  0  0  0  0  0  0  0  0  0
   -6.5913    0.0031   -2.4256 C   0  0  0  0  0  0  0  0  0  0  0  0
   -6.9444   -1.3471   -2.2951 C   0  0  0  0  0  0  0  0  0  0  0  0
   -7.8145   -1.9415   -3.2102 C   0  0  0  0  0  0  0  0  0  0  0  0
   -8.3359   -1.1945   -4.2647 C   0  0  0  0  0  0  0  0  0  0  0  0
   -7.9869    0.1472   -4.4060 C   0  0  0  0  0  0  0  0  0  0  0  0
   -7.1178    0.7441   -3.4917 C   0  0  0  0  0  0  0  0  0  0  0  0
   -3.7516    1.3380   -3.0038 C   0  0  0  0  0  0  0  0  0  0  0  0
   -4.1545    2.4898   -3.1477 O   0  0  0  0  0  0  0  0  0  0  0  0
   -2.7599    0.8282   -3.8010 N   0  0  0  0  0  0  0  0  0  0  0  0
    1.9756   -1.8933    1.8199 N   0  0  0  0  0  0  0  0  0  0  0  0
    2.6693   -1.4955    0.7038 C   0  0  0  0  0  0  0  0  0  0  0  0
    2.1520   -1.5025   -0.4104 O   0  0  0  0  0  0  0  0  0  0  0  0
    4.1465   -1.1041    0.9614 C   0  0  1  0  0  0  0  0  0  0  0  0
    4.7019   -0.2047   -0.1534 C   0  0  0  0  0  0  0  0  0  0  0  0
    4.0846    1.1976   -0.1971 C   0  0  0  0  0  0  0  0  0  0  0  0
    4.5214    1.9582   -1.4483 C   0  0  0  0  0  0  0  0  0  0  0  0
    3.8668    3.2639   -1.4410 N   0  0  0  0  0  0  0  0  0  0  0  0
    4.1425    4.0817   -2.3839 C   0  0  0  0  0  0  0  0  0  0  0  0
    4.9678    3.9419   -3.4437 N   0  0  0  0  0  0  0  0  0  0  0  0
    3.5701    5.3045   -2.4012 N   0  0  0  0  0  0  0  0  0  0  0  0
    4.3441   -0.4980    2.2914 N   0  0  0  0  0  0  0  0  0  0  0  0
   -0.4747   -1.7143    5.2365 C   0  0  0  0  0  0  0  0  0  0  0  0
    3.7208   -2.8819    7.4524 O   0  0  0  0  0  0  0  0  0  0  0  0
    3.9312   -5.3298    3.3564 H   0  0  0  0  0  0  0  0  0  0  0  0
    2.9135   -4.5037    2.1859 H   0  0  0  0  0  0  0  0  0  0  0  0
    2.2625   -5.8686    3.1418 H   0  0  0  0  0  0  0  0  0  0  0  0
    4.2061   -4.3920    5.4469 H   0  0  0  0  0  0  0  0  0  0  0  0
    1.3790   -1.6758    7.1456 H   0  0  0  0  0  0  0  0  0  0  0  0
   -0.7175   -3.5164    3.1710 H   0  0  0  0  0  0  0  0  0  0  0  0
    0.5212   -4.4568    2.4603 H   0  0  0  0  0  0  0  0  0  0  0  0
    0.4651   -2.9213    0.8234 H   0  0  0  0  0  0  0  0  0  0  0  0
    0.4771   -0.4682    0.1785 H   0  0  0  0  0  0  0  0  0  0  0  0
   -1.8728    0.8363    1.4611 H   0  0  0  0  0  0  0  0  0  0  0  0
    0.0078    2.4081    1.2574 H   0  0  0  0  0  0  0  0  0  0  0  0
   -1.3830    2.8989    0.3035 H   0  0  0  0  0  0  0  0  0  0  0  0
    0.8133    1.3109   -1.0777 H   0  0  0  0  0  0  0  0  0  0  0  0
    1.1463    2.9744   -0.6167 H   0  0  0  0  0  0  0  0  0  0  0  0
   -1.3679    2.3207   -2.1608 H   0  0  0  0  0  0  0  0  0  0  0  0
   -0.5915    3.8740   -1.9621 H   0  0  0  0  0  0  0  0  0  0  0  0
    0.7124    1.5168   -3.4392 H   0  0  0  0  0  0  0  0  0  0  0  0
    1.2918    3.1895   -3.3864 H   0  0  0  0  0  0  0  0  0  0  0  0
    0.1376    2.8295   -5.3731 H   0  0  0  0  0  0  0  0  0  0  0  0
   -0.7702    3.8315   -4.4657 H   0  0  0  0  0  0  0  0  0  0  0  0
   -3.4635    1.6692   -0.2506 H   0  0  0  0  0  0  0  0  0  0  0  0
   -3.9840   -0.6197   -2.1057 H   0  0  0  0  0  0  0  0  0  0  0  0
   -5.8199    0.2105   -0.4538 H   0  0  0  0  0  0  0  0  0  0  0  0
   -5.8670    1.7084   -1.3440 H   0  0  0  0  0  0  0  0  0  0  0  0
   -6.5433   -1.9455   -1.4799 H   0  0  0  0  0  0  0  0  0  0  0  0
   -8.0839   -2.9888   -3.1015 H   0  0  0  0  0  0  0  0  0  0  0  0
   -9.0115   -1.6582   -4.9784 H   0  0  0  0  0  0  0  0  0  0  0  0
   -8.3879    0.7301   -5.2309 H   0  0  0  0  0  0  0  0  0  0  0  0
   -6.8488    1.7913   -3.6215 H   0  0  0  0  0  0  0  0  0  0  0  0
   -2.2670    1.5162   -4.3697 H   0  0  0  0  0  0  0  0  0  0  0  0
   -2.1505    0.1221   -3.3914 H   0  0  0  0  0  0  0  0  0  0  0  0
    2.3371   -1.6066    2.7196 H   0  0  0  0  0  0  0  0  0  0  0  0
    4.7111   -2.0450    0.9408 H   0  0  0  0  0  0  0  0  0  0  0  0
    4.5449   -0.6989   -1.1208 H   0  0  0  0  0  0  0  0  0  0  0  0
    5.7887   -0.1081   -0.0305 H   0  0  0  0  0  0  0  0  0  0  0  0
    4.3777    1.7678    0.6928 H   0  0  0  0  0  0  0  0  0  0  0  0
    2.9925    1.1303   -0.1782 H   0  0  0  0  0  0  0  0  0  0  0  0
    5.6122    2.0703   -1.4455 H   0  0  0  0  0  0  0  0  0  0  0  0
    4.2253    1.3926   -2.3399 H   0  0  0  0  0  0  0  0  0  0  0  0
    5.2454    2.9872   -3.6331 H   0  0  0  0  0  0  0  0  0  0  0  0
    4.6007    4.3838   -4.2784 H   0  0  0  0  0  0  0  0  0  0  0  0
    4.2494    6.0374   -2.5673 H   0  0  0  0  0  0  0  0  0  0  0  0
    3.0921    5.4647   -1.5192 H   0  0  0  0  0  0  0  0  0  0  0  0
    3.6692    0.2505    2.4413 H   0  0  0  0  0  0  0  0  0  0  0  0
    4.2347   -1.1921    3.0276 H   0  0  0  0  0  0  0  0  0  0  0  0
   -0.3744   -0.8197    4.6167 H   0  0  0  0  0  0  0  0  0  0  0  0
   -1.3144   -2.3244    4.8943 H   0  0  0  0  0  0  0  0  0  0  0  0
   -0.7312   -1.3878    6.2509 H   0  0  0  0  0  0  0  0  0  0  0  0
    3.3008   -2.3077    8.1137 H   0  0  0  0  0  0  0  0  0  0  0  0
  1  2  1  0
  2  3  1  0
  3  4  2  0
  4  5  1  0
  5  6  2  0
  6  7  1  0
  7  8  1  0
  8  9  1  0
  9 10  1  0
 10 11  2  0
 10 12  1  0
 12 13  1  0
 13 14  1  0
 14 15  1  0
 15 16  1  0
 16 17  1  0
 17 18  1  0
 13 19  1  0
 19 20  2  0
 19 21  1  0
 21 22  1  0
 22 23  1  0
 23 24  1  0
 24 25  2  0
 25 26  1  0
 26 27  2  0
 27 28  1  0
 28 29  2  0
 22 30  1  0
 30 31  2  0
 30 32  1  0
  9 33  1  0
 33 34  1  0
 34 35  2  0
 34 36  1  0
 36 37  1  0
 37 38  1  0
 38 39  1  0
 39 40  1  0
 40 41  2  3
 41 42  1  0
 41 43  1  0
 36 44  1  0
  6 45  1  0
  4 46  1  0
  7  2  2  0
 29 24  1  0
  1 47  1  0
  1 48  1  0
  1 49  1  0
  3 50  1  0
  5 51  1  0
  8 52  1  0
  8 53  1  0
  9 54  1  6
 12 55  1  0
 13 56  1  1
 14 57  1  0
 14 58  1  0
 15 59  1  0
 15 60  1  0
 16 61  1  0
 16 62  1  0
 17 63  1  0
 17 64  1  0
 18 65  1  0
 18 66  1  0
 21 67  1  0
 22 68  1  6
 23 69  1  0
 23 70  1  0
 25 71  1  0
 26 72  1  0
 27 73  1  0
 28 74  1  0
 29 75  1  0
 32 76  1  0
 32 77  1  0
 33 78  1  0
 36 79  1  1
 37 80  1  0
 37 81  1  0
 38 82  1  0
 38 83  1  0
 39 84  1  0
 39 85  1  0
 42 86  1  0
 42 87  1  0
 43 88  1  0
 43 89  1  0
 44 90  1  0
 44 91  1  0
 45 92  1  0
 45 93  1  0
 45 94  1  0
 46 95  1  0
M  END
