
     RDKit          3D

130129  0  0  0  0  0  0  0  0999 V2000
   -0.1616    3.7594   -2.9139 C   0  0  0  0  0  0  0  0  0  0  0  0
   -0.0708    2.2720   -3.2438 C   0  0  2  0  0  0  0  0  0  0  0  0
    0.7485    1.4503   -2.2215 C   0  0  1  0  0  0  0  0  0  0  0  0
    2.2192    1.9099   -2.1532 C   0  0  0  0  0  0  0  0  0  0  0  0
    2.8074    2.4280   -3.0990 O   0  0  0  0  0  0  0  0  0  0  0  0
    2.8529    1.5782   -0.9769 N   0  0  0  0  0  0  0  0  0  0  0  0
    4.2730    1.8225   -0.7366 C   0  0  1  0  0  0  0  0  0  0  0  0
    4.5408    3.3167   -0.4858 C   0  0  0  0  0  0  0  0  0  0  0  0
    5.8000    3.6832    0.3026 C   0  0  0  0  0  0  0  0  0  0  0  0
    7.0833    3.1177   -0.2436 C   0  0  0  0  0  0  0  0  0  0  0  0
    7.2000    2.1298   -0.9520 O   0  0  0  0  0  0  0  0  0  0  0  0
    8.1576    3.7604    0.2483 O   0  0  0  0  0  0  0  0  0  0  0  0
    4.6538    0.9401    0.4637 C   0  0  0  0  0  0  0  0  0  0  0  0
    4.0471    0.9763    1.5344 O   0  0  0  0  0  0  0  0  0  0  0  0
    5.6952    0.0752    0.2329 N   0  0  0  0  0  0  0  0  0  0  0  0
    6.2129   -0.8394    1.2586 C   0  0  1  0  0  0  0  0  0  0  0  0
    5.3086   -2.0830    1.4659 C   0  0  1  0  0  0  0  0  0  0  0  0
    5.4944   -2.7157    2.8418 C   0  0  0  0  0  0  0  0  0  0  0  0
    3.9139   -1.7548    1.3474 O   0  0  0  0  0  0  0  0  0  0  0  0
    7.6570   -1.2514    0.8858 C   0  0  0  0  0  0  0  0  0  0  0  0
    8.1636   -2.3162    1.2285 O   0  0  0  0  0  0  0  0  0  0  0  0
    8.3870   -0.2786    0.2325 N   0  0  0  0  0  0  0  0  0  0  0  0
    9.7802   -0.4689   -0.1748 C   0  0  1  0  0  0  0  0  0  0  0  0
    9.8881   -0.9561   -1.6223 C   0  0  0  0  0  0  0  0  0  0  0  0
    9.3875   -2.3884   -1.8073 C   0  0  0  0  0  0  0  0  0  0  0  0
    9.6224   -2.8873   -3.2154 C   0  0  0  0  0  0  0  0  0  0  0  0
   10.1128   -2.2207   -4.1174 O   0  0  0  0  0  0  0  0  0  0  0  0
    9.2215   -4.1738   -3.4253 N   0  0  0  0  0  0  0  0  0  0  0  0
   10.5318    0.8583   -0.0287 C   0  0  0  0  0  0  0  0  0  0  0  0
   10.0417    1.9809   -0.0152 O   0  0  0  0  0  0  0  0  0  0  0  0
   11.8664    0.6924    0.0690 O   0  0  0  0  0  0  0  0  0  0  0  0
    0.1630    1.4549   -0.8737 N   0  0  0  0  0  0  0  0  0  0  0  0
   -0.8926    0.6296   -0.5538 C   0  0  0  0  0  0  0  0  0  0  0  0
   -1.3432   -0.2050   -1.3358 O   0  0  0  0  0  0  0  0  0  0  0  0
   -1.4396    0.8071    0.8794 C   0  0  2  0  0  0  0  0  0  0  0  0
   -0.4335    0.3935    1.9652 C   0  0  0  0  0  0  0  0  0  0  0  0
   -0.2285   -1.1093    2.2111 C   0  0  0  0  0  0  0  0  0  0  0  0
    0.4047   -1.8647    1.0409 C   0  0  0  0  0  0  0  0  0  0  0  0
    0.8975   -3.2653    1.4221 C   0  0  0  0  0  0  0  0  0  0  0  0
   -0.1901   -4.1641    1.7936 N   0  0  0  0  0  0  0  0  0  0  0  0
   -2.7041    0.0923    0.9927 N   0  0  0  0  0  0  0  0  0  0  0  0
   -3.8920    0.7303    0.6992 C   0  0  0  0  0  0  0  0  0  0  0  0
   -3.9792    1.9491    0.5385 O   0  0  0  0  0  0  0  0  0  0  0  0
   -5.1157   -0.2047    0.5735 C   0  0  2  0  0  0  0  0  0  0  0  0
   -5.0593   -1.0179   -0.7300 C   0  0  0  0  0  0  0  0  0  0  0  0
   -4.7663   -2.5094   -0.5216 C   0  0  0  0  0  0  0  0  0  0  0  0
   -5.8701   -3.3052    0.1882 C   0  0  0  0  0  0  0  0  0  0  0  0
   -7.2446   -3.2897   -0.4884 C   0  0  0  0  0  0  0  0  0  0  0  0
   -7.2228   -3.8679   -1.8285 N   0  0  0  0  0  0  0  0  0  0  0  0
   -6.2926    0.6564    0.5904 N   0  0  0  0  0  0  0  0  0  0  0  0
   -7.4177    0.3373    1.3198 C   0  0  0  0  0  0  0  0  0  0  0  0
   -7.5925   -0.7792    1.8026 O   0  0  0  0  0  0  0  0  0  0  0  0
   -8.5096    1.4332    1.3293 C   0  0  2  0  0  0  0  0  0  0  0  0
   -9.5335    1.1875    0.2095 C   0  0  0  0  0  0  0  0  0  0  0  0
  -10.3879   -0.0884    0.3510 C   0  0  0  0  0  0  0  0  0  0  0  0
  -11.3175   -0.2218   -0.8590 C   0  0  0  0  0  0  0  0  0  0  0  0
  -11.2129   -0.1019    1.6381 C   0  0  0  0  0  0  0  0  0  0  0  0
   -7.9033    2.7611    1.1349 N   0  0  0  0  0  0  0  0  0  0  0  0
   -7.3355    3.4493    2.1819 C   0  0  0  0  0  0  0  0  0  0  0  0
   -7.3081    3.0279    3.3323 O   0  0  0  0  0  0  0  0  0  0  0  0
   -6.7108    4.7608    1.7910 C   0  0  0  0  0  0  0  0  0  0  0  0
    0.4485    2.1258   -4.5688 O   0  0  0  0  0  0  0  0  0  0  0  0
    0.8211    4.2407   -2.9400 H   0  0  0  0  0  0  0  0  0  0  0  0
   -0.6096    3.9283   -1.9304 H   0  0  0  0  0  0  0  0  0  0  0  0
   -0.7746    4.2729   -3.6630 H   0  0  0  0  0  0  0  0  0  0  0  0
   -1.0920    1.8744   -3.2726 H   0  0  0  0  0  0  0  0  0  0  0  0
    0.7873    0.4093   -2.5699 H   0  0  0  0  0  0  0  0  0  0  0  0
    2.3333    1.0423   -0.2864 H   0  0  0  0  0  0  0  0  0  0  0  0
    4.8133    1.4951   -1.6320 H   0  0  0  0  0  0  0  0  0  0  0  0
    4.5702    3.8279   -1.4570 H   0  0  0  0  0  0  0  0  0  0  0  0
    3.6860    3.7523    0.0498 H   0  0  0  0  0  0  0  0  0  0  0  0
    5.8868    4.7765    0.3096 H   0  0  0  0  0  0  0  0  0  0  0  0
    5.7054    3.3524    1.3428 H   0  0  0  0  0  0  0  0  0  0  0  0
    8.9492    3.2226   -0.0151 H   0  0  0  0  0  0  0  0  0  0  0  0
    6.0164   -0.0483   -0.7231 H   0  0  0  0  0  0  0  0  0  0  0  0
    6.2661   -0.2641    2.1917 H   0  0  0  0  0  0  0  0  0  0  0  0
    5.5149   -2.8312    0.6922 H   0  0  0  0  0  0  0  0  0  0  0  0
    4.8222   -3.5732    2.9578 H   0  0  0  0  0  0  0  0  0  0  0  0
    6.5185   -3.0586    3.0071 H   0  0  0  0  0  0  0  0  0  0  0  0
    5.2320   -2.0064    3.6348 H   0  0  0  0  0  0  0  0  0  0  0  0
    3.7765   -0.9185    1.8397 H   0  0  0  0  0  0  0  0  0  0  0  0
    7.9253    0.5840   -0.0585 H   0  0  0  0  0  0  0  0  0  0  0  0
   10.2442   -1.1862    0.5125 H   0  0  0  0  0  0  0  0  0  0  0  0
   10.9353   -0.9007   -1.9480 H   0  0  0  0  0  0  0  0  0  0  0  0
    9.3298   -0.2831   -2.2871 H   0  0  0  0  0  0  0  0  0  0  0  0
    9.9073   -3.0605   -1.1149 H   0  0  0  0  0  0  0  0  0  0  0  0
    8.3117   -2.4467   -1.6100 H   0  0  0  0  0  0  0  0  0  0  0  0
    9.4082   -4.5765   -4.3349 H   0  0  0  0  0  0  0  0  0  0  0  0
    8.9608   -4.7928   -2.6699 H   0  0  0  0  0  0  0  0  0  0  0  0
   12.2447    1.5938    0.1389 H   0  0  0  0  0  0  0  0  0  0  0  0
    0.3232    2.2751   -0.2989 H   0  0  0  0  0  0  0  0  0  0  0  0
   -1.6329    1.8809    0.9995 H   0  0  0  0  0  0  0  0  0  0  0  0
    0.5417    0.8560    1.7688 H   0  0  0  0  0  0  0  0  0  0  0  0
   -0.7841    0.8207    2.9147 H   0  0  0  0  0  0  0  0  0  0  0  0
   -1.1820   -1.5726    2.4886 H   0  0  0  0  0  0  0  0  0  0  0  0
    0.4255   -1.2092    3.0872 H   0  0  0  0  0  0  0  0  0  0  0  0
   -0.3151   -1.9573    0.2216 H   0  0  0  0  0  0  0  0  0  0  0  0
    1.2569   -1.2921    0.6568 H   0  0  0  0  0  0  0  0  0  0  0  0
    1.4310   -3.7010    0.5704 H   0  0  0  0  0  0  0  0  0  0  0  0
    1.6116   -3.2053    2.2504 H   0  0  0  0  0  0  0  0  0  0  0  0
   -0.6738   -3.8115    2.6168 H   0  0  0  0  0  0  0  0  0  0  0  0
   -0.8765   -4.2050    1.0423 H   0  0  0  0  0  0  0  0  0  0  0  0
   -2.6622   -0.8924    0.7587 H   0  0  0  0  0  0  0  0  0  0  0  0
   -5.1321   -0.8431    1.4632 H   0  0  0  0  0  0  0  0  0  0  0  0
   -4.2772   -0.6145   -1.3864 H   0  0  0  0  0  0  0  0  0  0  0  0
   -5.9929   -0.9129   -1.2952 H   0  0  0  0  0  0  0  0  0  0  0  0
   -3.8371   -2.6220    0.0493 H   0  0  0  0  0  0  0  0  0  0  0  0
   -4.5700   -2.9634   -1.5005 H   0  0  0  0  0  0  0  0  0  0  0  0
   -5.5327   -4.3461    0.2801 H   0  0  0  0  0  0  0  0  0  0  0  0
   -5.9829   -2.9401    1.2149 H   0  0  0  0  0  0  0  0  0  0  0  0
   -7.9462   -3.8673    0.1236 H   0  0  0  0  0  0  0  0  0  0  0  0
   -7.6446   -2.2734   -0.5433 H   0  0  0  0  0  0  0  0  0  0  0  0
   -6.6164   -3.3187   -2.4345 H   0  0  0  0  0  0  0  0  0  0  0  0
   -6.8175   -4.8021   -1.7898 H   0  0  0  0  0  0  0  0  0  0  0  0
   -6.1085    1.6476    0.4658 H   0  0  0  0  0  0  0  0  0  0  0  0
   -8.9793    1.4287    2.3179 H   0  0  0  0  0  0  0  0  0  0  0  0
   -9.0056    1.1493   -0.7537 H   0  0  0  0  0  0  0  0  0  0  0  0
  -10.2046    2.0556    0.1501 H   0  0  0  0  0  0  0  0  0  0  0  0
   -9.7322   -0.9663    0.3533 H   0  0  0  0  0  0  0  0  0  0  0  0
  -10.7419   -0.2540   -1.7901 H   0  0  0  0  0  0  0  0  0  0  0  0
  -12.0155    0.6202   -0.9197 H   0  0  0  0  0  0  0  0  0  0  0  0
  -11.9043   -1.1447   -0.7992 H   0  0  0  0  0  0  0  0  0  0  0  0
  -11.8386    0.7933    1.7181 H   0  0  0  0  0  0  0  0  0  0  0  0
  -10.5713   -0.1516    2.5227 H   0  0  0  0  0  0  0  0  0  0  0  0
  -11.8709   -0.9772    1.6683 H   0  0  0  0  0  0  0  0  0  0  0  0
   -7.7933    3.1089    0.1908 H   0  0  0  0  0  0  0  0  0  0  0  0
   -5.6258    4.6384    1.7385 H   0  0  0  0  0  0  0  0  0  0  0  0
   -6.9620    5.5153    2.5416 H   0  0  0  0  0  0  0  0  0  0  0  0
   -7.0793    5.1079    0.8217 H   0  0  0  0  0  0  0  0  0  0  0  0
    1.3825    2.4234   -4.5534 H   0  0  0  0  0  0  0  0  0  0  0  0
  1  2  1  0
  2  3  1  0
  3  4  1  0
  4  5  2  0
  4  6  1  0
  6  7  1  0
  7  8  1  0
  8  9  1  0
  9 10  1  0
 10 11  2  0
 10 12  1  0
  7 13  1  0
 13 14  2  0
 13 15  1  0
 15 16  1  0
 16 17  1  0
 17 18  1  0
 17 19  1  0
 16 20  1  0
 20 21  2  0
 20 22  1  0
 22 23  1  0
 23 24  1  0
 24 25  1  0
 25 26  1  0
 26 27  2  0
 26 28  1  0
 23 29  1  0
 29 30  2  0
 29 31  1  0
  3 32  1  0
 32 33  1  0
 33 34  2  0
 33 35  1  0
 35 36  1  0
 36 37  1  0
 37 38  1  0
 38 39  1  0
 39 40  1  0
 35 41  1  0
 41 42  1  0
 42 43  2  0
 42 44  1  0
 44 45  1  0
 45 46  1  0
 46 47  1  0
 47 48  1  0
 48 49  1  0
 44 50  1  0
 50 51  1  0
 51 52  2  0
 51 53  1  0
 53 54  1  0
 54 55  1  0
 55 56  1  0
 55 57  1  0
 53 58  1  0
 58 59  1  0
 59 60  2  0
 59 61  1  0
  2 62  1  0
  1 63  1  0
  1 64  1  0
  1 65  1  0
  2 66  1  6
  3 67  1  6
  6 68  1  0
  7 69  1  6
  8 70  1  0
  8 71  1  0
  9 72  1  0
  9 73  1  0
 12 74  1  0
 15 75  1  0
 16 76  1  1
 17 77  1  6
 18 78  1  0
 18 79  1  0
 18 80  1  0
 19 81  1  0
 22 82  1  0
 23 83  1  1
 24 84  1  0
 24 85  1  0
 25 86  1  0
 25 87  1  0
 28 88  1  0
 28 89  1  0
 31 90  1  0
 32 91  1  0
 35 92  1  1
 36 93  1  0
 36 94  1  0
 37 95  1  0
 37 96  1  0
 38 97  1  0
 38 98  1  0
 39 99  1  0
 39100  1  0
 40101  1  0
 40102  1  0
 41103  1  0
 44104  1  1
 45105  1  0
 45106  1  0
 46107  1  0
 46108  1  0
 47109  1  0
 47110  1  0
 48111  1  0
 48112  1  0
 49113  1  0
 49114  1  0
 50115  1  0
 53116  1  1
 54117  1  0
 54118  1  0
 55119  1  0
 56120  1  0
 56121  1  0
 56122  1  0
 57123  1  0
 57124  1  0
 57125  1  0
 58126  1  0
 61127  1  0
 61128  1  0
 61129  1  0
 62130  1  0
M  END
