
     RDKit          3D

432431  0  0  0  0  0  0  0  0999 V2000
    9.7016   -1.3003    2.4643 C   0  0  0  0  0  0  0  0  0  0  0  0
    8.2365   -0.9590    2.2161 C   0  0  0  0  0  0  0  0  0  0  0  0
    7.4743   -2.0580    1.4532 C   0  0  2  0  0  0  0  0  0  0  0  0
    8.0043   -2.1990    0.0174 C   0  0  0  0  0  0  0  0  0  0  0  0
    5.9307   -1.8932    1.4293 C   0  0  1  0  0  0  0  0  0  0  0  0
    5.2619   -2.2336    2.7839 C   0  0  0  0  0  0  0  0  0  0  0  0
    4.9097   -3.3860    3.0451 O   0  0  0  0  0  0  0  0  0  0  0  0
    5.1834   -1.2295    3.7160 N   0  0  0  0  0  0  0  0  0  0  0  0
    4.9209   -1.5253    5.1321 C   0  0  1  0  0  0  0  0  0  0  0  0
    6.2282   -1.8745    5.8804 C   0  0  1  0  0  0  0  0  0  0  0  0
    7.0103   -0.6794    6.4115 C   0  0  0  0  0  0  0  0  0  0  0  0
    6.0011   -2.8215    6.9234 O   0  0  0  0  0  0  0  0  0  0  0  0
    4.0850   -0.4150    5.8002 C   0  0  0  0  0  0  0  0  0  0  0  0
    3.9350   -0.3045    7.0152 O   0  0  0  0  0  0  0  0  0  0  0  0
    3.3559    0.3550    4.9135 N   0  0  0  0  0  0  0  0  0  0  0  0
    2.1926    1.1015    5.3840 C   0  0  1  0  0  0  0  0  0  0  0  0
    1.6828    2.1087    4.3369 C   0  0  1  0  0  0  0  0  0  0  0  0
    2.5801    3.3370    4.2663 C   0  0  0  0  0  0  0  0  0  0  0  0
    1.6342    1.5089    3.0322 O   0  0  0  0  0  0  0  0  0  0  0  0
    1.1088    0.0368    5.6077 C   0  0  0  0  0  0  0  0  0  0  0  0
    0.7225   -0.6977    4.6991 O   0  0  0  0  0  0  0  0  0  0  0  0
    0.6566   -0.0749    6.9145 N   0  0  0  0  0  0  0  0  0  0  0  0
   -0.0258   -1.3267    7.2800 C   0  0  1  0  0  0  0  0  0  0  0  0
   -0.2384   -1.3956    8.7981 C   0  0  0  0  0  0  0  0  0  0  0  0
   -0.4479   -2.8397    9.2671 C   0  0  0  0  0  0  0  0  0  0  0  0
   -0.5308   -2.9253   10.7935 C   0  0  0  0  0  0  0  0  0  0  0  0
   -0.5091   -4.3603   11.3235 C   0  0  0  0  0  0  0  0  0  0  0  0
    0.7585   -5.0284   11.0225 N   0  0  0  0  0  0  0  0  0  0  0  0
   -1.3874   -1.4594    6.5550 C   0  0  0  0  0  0  0  0  0  0  0  0
   -1.8599   -2.5487    6.2263 O   0  0  0  0  0  0  0  0  0  0  0  0
   -2.0826   -0.2672    6.4213 N   0  0  0  0  0  0  0  0  0  0  0  0
   -3.2664   -0.2255    5.5654 C   0  0  1  0  0  0  0  0  0  0  0  0
   -4.1734    0.9519    5.9131 C   0  0  0  0  0  0  0  0  0  0  0  0
   -5.2718    1.1361    4.9032 C   0  0  0  0  0  0  0  0  0  0  0  0
   -5.5973    2.1940    4.3914 O   0  0  0  0  0  0  0  0  0  0  0  0
   -5.9115   -0.0067    4.5933 O   0  0  0  0  0  0  0  0  0  0  0  0
   -2.7964   -0.0942    4.1002 C   0  0  0  0  0  0  0  0  0  0  0  0
   -1.8973    0.6723    3.7615 O   0  0  0  0  0  0  0  0  0  0  0  0
   -3.5251   -0.8631    3.2266 N   0  0  0  0  0  0  0  0  0  0  0  0
   -3.3103   -0.9005    1.7799 C   0  0  1  0  0  0  0  0  0  0  0  0
   -2.3444   -2.0606    1.4596 C   0  0  0  0  0  0  0  0  0  0  0  0
   -1.1829   -1.6585    0.5292 C   0  0  0  0  0  0  0  0  0  0  0  0
   -0.1744   -0.7503    1.2287 C   0  0  0  0  0  0  0  0  0  0  0  0
   -0.4531   -2.9003    0.0266 C   0  0  0  0  0  0  0  0  0  0  0  0
   -4.7532   -0.9827    1.1850 C   0  0  0  0  0  0  0  0  0  0  0  0
   -5.6780   -0.2787    1.6116 O   0  0  0  0  0  0  0  0  0  0  0  0
   -4.9704   -1.9053    0.1933 N   0  0  0  0  0  0  0  0  0  0  0  0
   -6.2877   -2.2661   -0.3272 C   0  0  1  0  0  0  0  0  0  0  0  0
   -7.3556   -2.6575    0.7171 C   0  0  0  0  0  0  0  0  0  0  0  0
   -7.0859   -3.9466    1.5051 C   0  0  0  0  0  0  0  0  0  0  0  0
   -5.9349   -3.8262    2.5042 C   0  0  0  0  0  0  0  0  0  0  0  0
   -5.8759   -5.0039    3.4731 C   0  0  0  0  0  0  0  0  0  0  0  0
   -4.7618   -4.8062    4.3930 N   0  0  0  0  0  0  0  0  0  0  0  0
   -6.7862   -1.1671   -1.2883 C   0  0  0  0  0  0  0  0  0  0  0  0
   -6.5979   -1.2282   -2.5007 O   0  0  0  0  0  0  0  0  0  0  0  0
   -7.3892   -0.0899   -0.6721 N   0  0  0  0  0  0  0  0  0  0  0  0
   -7.7837    1.0949   -1.4337 C   0  0  1  0  0  0  0  0  0  0  0  0
   -8.9596    1.7998   -0.7525 C   0  0  0  0  0  0  0  0  0  0  0  0
  -10.2410    0.9686   -0.8219 C   0  0  0  0  0  0  0  0  0  0  0  0
  -11.3932    1.6820   -0.1707 C   0  0  0  0  0  0  0  0  0  0  0  0
  -11.3584    2.7256    0.4572 O   0  0  0  0  0  0  0  0  0  0  0  0
  -12.5526    1.0162   -0.3343 O   0  0  0  0  0  0  0  0  0  0  0  0
   -6.6110    2.0877   -1.5618 C   0  0  0  0  0  0  0  0  0  0  0  0
   -6.5275    2.8835   -2.4962 O   0  0  0  0  0  0  0  0  0  0  0  0
   -5.7669    2.1315   -0.4673 N   0  0  0  0  0  0  0  0  0  0  0  0
   -4.5391    2.9079   -0.5345 C   0  0  1  0  0  0  0  0  0  0  0  0
   -4.0545    3.3201    0.8604 C   0  0  0  0  0  0  0  0  0  0  0  0
   -4.9909    4.2856    1.5951 C   0  0  0  0  0  0  0  0  0  0  0  0
   -5.0957    5.6546    0.9191 C   0  0  0  0  0  0  0  0  0  0  0  0
   -5.9393    6.6192    1.7505 C   0  0  0  0  0  0  0  0  0  0  0  0
   -6.0227    7.9150    1.0830 N   0  0  0  0  0  0  0  0  0  0  0  0
   -3.4664    2.0097   -1.1863 C   0  0  0  0  0  0  0  0  0  0  0  0
   -3.3759    0.8034   -0.9518 O   0  0  0  0  0  0  0  0  0  0  0  0
   -2.6117    2.6747   -2.0279 N   0  0  0  0  0  0  0  0  0  0  0  0
   -1.3632    2.1412   -2.5563 C   0  0  1  0  0  0  0  0  0  0  0  0
   -0.3432    1.8115   -1.4588 C   0  0  0  0  0  0  0  0  0  0  0  0
    0.1959    3.0107   -0.6783 C   0  0  0  0  0  0  0  0  0  0  0  0
    0.8611    4.1123   -1.5070 C   0  0  0  0  0  0  0  0  0  0  0  0
    1.8746    3.6151   -2.5311 C   0  0  0  0  0  0  0  0  0  0  0  0
    2.6137    4.7479   -3.0803 N   0  0  0  0  0  0  0  0  0  0  0  0
   -1.4708    0.9399   -3.5237 C   0  0  0  0  0  0  0  0  0  0  0  0
   -0.9667    0.9840   -4.6451 O   0  0  0  0  0  0  0  0  0  0  0  0
   -2.0111   -0.2175   -3.0217 N   0  0  0  0  0  0  0  0  0  0  0  0
   -1.9768   -1.4767   -3.7595 C   0  0  1  0  0  0  0  0  0  0  0  0
   -0.5517   -2.0778   -3.7351 C   0  0  0  0  0  0  0  0  0  0  0  0
    0.1848   -2.0201   -5.0778 C   0  0  0  0  0  0  0  0  0  0  0  0
   -0.3794   -2.9952   -6.0695 C   0  0  0  0  0  0  0  0  0  0  0  0
   -1.4816   -3.5181   -6.0120 O   0  0  0  0  0  0  0  0  0  0  0  0
    0.4725   -3.2696   -7.0710 O   0  0  0  0  0  0  0  0  0  0  0  0
   -2.9625   -2.4963   -3.1364 C   0  0  0  0  0  0  0  0  0  0  0  0
   -3.3298   -2.4557   -1.9598 O   0  0  0  0  0  0  0  0  0  0  0  0
   -3.3157   -3.5253   -3.9793 N   0  0  0  0  0  0  0  0  0  0  0  0
   -4.2175   -4.6143   -3.6072 C   0  0  1  0  0  0  0  0  0  0  0  0
   -5.0504   -5.1429   -4.7981 C   0  0  0  0  0  0  0  0  0  0  0  0
   -6.1020   -4.1105   -5.2213 C   0  0  0  0  0  0  0  0  0  0  0  0
   -4.2195   -5.5554   -6.0164 C   0  0  0  0  0  0  0  0  0  0  0  0
   -3.4478   -5.7414   -2.8639 C   0  0  0  0  0  0  0  0  0  0  0  0
   -3.3862   -6.9036   -3.2469 O   0  0  0  0  0  0  0  0  0  0  0  0
   -2.8980   -5.3269   -1.6636 N   0  0  0  0  0  0  0  0  0  0  0  0
   -2.3974   -6.2605   -0.6428 C   0  0  1  0  0  0  0  0  0  0  0  0
   -3.4206   -7.3265   -0.1663 C   0  0  0  0  0  0  0  0  0  0  0  0
   -3.0540   -7.8730    1.2240 C   0  0  0  0  0  0  0  0  0  0  0  0
   -4.8470   -6.7702   -0.0778 C   0  0  0  0  0  0  0  0  0  0  0  0
   -1.0140   -6.8560   -1.0317 C   0  0  0  0  0  0  0  0  0  0  0  0
   -0.5273   -7.8549   -0.5064 O   0  0  0  0  0  0  0  0  0  0  0  0
   -0.2544   -6.0367   -1.8435 N   0  0  0  0  0  0  0  0  0  0  0  0
    1.1804   -6.2515   -2.0481 C   0  0  1  0  0  0  0  0  0  0  0  0
    1.5970   -5.6764   -3.4112 C   0  0  0  0  0  0  0  0  0  0  0  0
    3.0123   -6.0715   -3.8424 C   0  0  0  0  0  0  0  0  0  0  0  0
    3.1150   -7.5250   -4.2156 C   0  0  0  0  0  0  0  0  0  0  0  0
    2.1959   -8.2940   -4.4326 O   0  0  0  0  0  0  0  0  0  0  0  0
    4.3935   -7.9322   -4.3201 O   0  0  0  0  0  0  0  0  0  0  0  0
    1.9227   -5.5578   -0.8714 C   0  0  0  0  0  0  0  0  0  0  0  0
    2.7246   -4.6374   -1.0301 O   0  0  0  0  0  0  0  0  0  0  0  0
    1.5955   -6.0440    0.3749 N   0  0  0  0  0  0  0  0  0  0  0  0
    2.2569   -5.5859    1.5967 C   0  0  1  0  0  0  0  0  0  0  0  0
    1.2353   -5.5243    2.7438 C   0  0  0  0  0  0  0  0  0  0  0  0
    1.5544   -4.4207    3.7495 C   0  0  0  0  0  0  0  0  0  0  0  0
    0.5071   -4.3079    4.8236 C   0  0  0  0  0  0  0  0  0  0  0  0
    0.7040   -4.4023    6.0243 O   0  0  0  0  0  0  0  0  0  0  0  0
   -0.7099   -3.9951    4.3337 O   0  0  0  0  0  0  0  0  0  0  0  0
    3.3921   -6.5759    1.9357 C   0  0  0  0  0  0  0  0  0  0  0  0
    3.3438   -7.7682    1.6344 O   0  0  0  0  0  0  0  0  0  0  0  0
    4.4372   -6.0319    2.6478 N   0  0  0  0  0  0  0  0  0  0  0  0
    5.3643   -6.8788    3.3829 C   0  0  1  0  0  0  0  0  0  0  0  0
    6.6990   -6.1644    3.5604 C   0  0  0  0  0  0  0  0  0  0  0  0
    4.7343   -7.2306    4.7549 C   0  0  0  0  0  0  0  0  0  0  0  0
    3.6304   -6.8300    5.1171 O   0  0  0  0  0  0  0  0  0  0  0  0
    5.5203   -8.0359    5.5620 N   0  0  0  0  0  0  0  0  0  0  0  0
    4.9292   -8.6688    6.7547 C   0  0  1  0  0  0  0  0  0  0  0  0
    5.8925   -9.7487    7.2700 C   0  0  0  0  0  0  0  0  0  0  0  0
    5.3003  -10.6144    8.3840 C   0  0  0  0  0  0  0  0  0  0  0  0
    6.1977  -11.7793    8.7021 C   0  0  0  0  0  0  0  0  0  0  0  0
    7.2446  -12.0772    8.1529 O   0  0  0  0  0  0  0  0  0  0  0  0
    5.7113  -12.5329    9.7069 O   0  0  0  0  0  0  0  0  0  0  0  0
    4.6419   -7.6486    7.8830 C   0  0  0  0  0  0  0  0  0  0  0  0
    3.8414   -7.8852    8.7867 O   0  0  0  0  0  0  0  0  0  0  0  0
    5.4770   -6.5534    7.9020 N   0  0  0  0  0  0  0  0  0  0  0  0
    5.3931   -5.5111    8.9323 C   0  0  1  0  0  0  0  0  0  0  0  0
    3.9991   -4.8881    9.0213 C   0  0  0  0  0  0  0  0  0  0  0  0
    4.0610   -3.5026    9.6222 C   0  0  0  0  0  0  0  0  0  0  0  0
    4.9810   -2.7106    9.4380 O   0  0  0  0  0  0  0  0  0  0  0  0
    2.9652   -3.1361   10.3438 N   0  0  0  0  0  0  0  0  0  0  0  0
    5.8721   -6.1095   10.2642 C   0  0  0  0  0  0  0  0  0  0  0  0
    6.7190   -6.9830   10.4025 O   0  0  0  0  0  0  0  0  0  0  0  0
    5.3329   -5.5403   11.3612 O   0  0  0  0  0  0  0  0  0  0  0  0
    5.4252   -0.7083    0.7405 N   0  0  0  0  0  0  0  0  0  0  0  0
    5.4414    0.5976    1.1692 C   0  0  0  0  0  0  0  0  0  0  0  0
    5.8719    0.9205    2.2752 O   0  0  0  0  0  0  0  0  0  0  0  0
    4.9081    1.6346    0.1315 C   0  0  2  0  0  0  0  0  0  0  0  0
    4.2163    2.7985    0.8596 C   0  0  0  0  0  0  0  0  0  0  0  0
    5.1548    3.9664    1.1723 C   0  0  0  0  0  0  0  0  0  0  0  0
    5.1382    5.0023    0.0768 C   0  0  0  0  0  0  0  0  0  0  0  0
    4.7204    4.8590   -1.0599 O   0  0  0  0  0  0  0  0  0  0  0  0
    5.6465    6.1788    0.4885 O   0  0  0  0  0  0  0  0  0  0  0  0
    3.9450    0.9772   -0.7596 N   0  0  0  0  0  0  0  0  0  0  0  0
    4.3126    0.4186   -1.9715 C   0  0  0  0  0  0  0  0  0  0  0  0
    5.4581    0.5028   -2.4088 O   0  0  0  0  0  0  0  0  0  0  0  0
    3.1947   -0.3947   -2.6493 C   0  0  2  0  0  0  0  0  0  0  0  0
    2.9344   -1.6780   -1.8540 C   0  0  0  0  0  0  0  0  0  0  0  0
    4.1124   -2.4759   -1.7449 O   0  0  0  0  0  0  0  0  0  0  0  0
    3.5038   -0.7020   -4.0367 N   0  0  0  0  0  0  0  0  0  0  0  0
    3.3525    0.2613   -5.0115 C   0  0  0  0  0  0  0  0  0  0  0  0
    2.9143    1.3802   -4.7462 O   0  0  0  0  0  0  0  0  0  0  0  0
    3.7104   -0.2042   -6.4463 C   0  0  2  0  0  0  0  0  0  0  0  0
    5.1602   -0.7045   -6.4888 C   0  0  0  0  0  0  0  0  0  0  0  0
    5.2886   -1.9612   -5.8191 O   0  0  0  0  0  0  0  0  0  0  0  0
    3.5138    0.8931   -7.3968 N   0  0  0  0  0  0  0  0  0  0  0  0
    2.2384    1.3051   -7.7242 C   0  0  0  0  0  0  0  0  0  0  0  0
    1.2430    0.6190   -7.4842 O   0  0  0  0  0  0  0  0  0  0  0  0
    2.1271    2.6402   -8.5045 C   0  0  2  0  0  0  0  0  0  0  0  0
    3.1863    3.7059   -8.1272 C   0  0  1  0  0  0  0  0  0  0  0  0
    3.2249    4.0576   -6.6473 C   0  0  0  0  0  0  0  0  0  0  0  0
    4.5004    3.2747   -8.5152 O   0  0  0  0  0  0  0  0  0  0  0  0
    0.7554    3.1383   -8.3435 N   0  0  0  0  0  0  0  0  0  0  0  0
    0.2403    4.1537   -9.1168 C   0  0  0  0  0  0  0  0  0  0  0  0
    0.9178    4.7148   -9.9756 O   0  0  0  0  0  0  0  0  0  0  0  0
   -1.2550    4.4662   -8.8875 C   0  0  2  0  0  0  0  0  0  0  0  0
   -1.4873    5.9707   -9.0026 C   0  0  0  0  0  0  0  0  0  0  0  0
   -2.9439    6.2823   -9.1348 C   0  0  0  0  0  0  0  0  0  0  0  0
   -3.6637    6.7170   -8.2484 O   0  0  0  0  0  0  0  0  0  0  0  0
   -3.4273    6.0217  -10.3627 O   0  0  0  0  0  0  0  0  0  0  0  0
   -1.7192    3.9404   -7.5995 N   0  0  0  0  0  0  0  0  0  0  0  0
   -3.0150    3.4835   -7.4242 C   0  0  0  0  0  0  0  0  0  0  0  0
   -3.8247    3.4319   -8.3448 O   0  0  0  0  0  0  0  0  0  0  0  0
   -3.3514    3.1417   -5.9553 C   0  0  2  0  0  0  0  0  0  0  0  0
   -4.4210    2.0374   -5.7719 C   0  0  0  0  0  0  0  0  0  0  0  0
   -5.8487    2.4415   -6.1551 C   0  0  0  0  0  0  0  0  0  0  0  0
   -4.0353    0.7508   -6.5095 C   0  0  0  0  0  0  0  0  0  0  0  0
   -3.7128    4.3717   -5.2463 N   0  0  0  0  0  0  0  0  0  0  0  0
   -2.7782    5.2456   -4.7419 C   0  0  0  0  0  0  0  0  0  0  0  0
   -1.5648    5.0923   -4.9025 O   0  0  0  0  0  0  0  0  0  0  0  0
   -3.3737    6.4482   -3.9752 C   0  0  2  0  0  0  0  0  0  0  0  0
   -3.8923    7.4920   -4.9531 C   0  0  0  0  0  0  0  0  0  0  0  0
   -2.3802    7.0370   -3.0781 N   0  0  0  0  0  0  0  0  0  0  0  0
   -2.0692    6.4368   -1.8769 C   0  0  0  0  0  0  0  0  0  0  0  0
   -2.6084    5.3917   -1.5112 O   0  0  0  0  0  0  0  0  0  0  0  0
   -1.0795    7.2108   -0.9807 C   0  0  2  0  0  0  0  0  0  0  0  0
   -1.7879    8.4465   -0.4267 C   0  0  0  0  0  0  0  0  0  0  0  0
    0.1433    7.5720   -1.7050 N   0  0  0  0  0  0  0  0  0  0  0  0
    1.2631    8.0098   -1.0065 C   0  0  0  0  0  0  0  0  0  0  0  0
    1.2697    8.1279    0.2163 O   0  0  0  0  0  0  0  0  0  0  0  0
    2.5273    8.2293   -1.8727 C   0  0  2  0  0  0  0  0  0  0  0  0
    3.4107    9.3084   -1.2530 C   0  0  0  0  0  0  0  0  0  0  0  0
    4.8188    9.2414   -1.7565 C   0  0  0  0  0  0  0  0  0  0  0  0
    5.4017   10.1195   -2.3713 O   0  0  0  0  0  0  0  0  0  0  0  0
    5.4636    8.0974   -1.4328 O   0  0  0  0  0  0  0  0  0  0  0  0
    2.1259    8.5427   -3.2439 N   0  0  0  0  0  0  0  0  0  0  0  0
    2.8789    8.1547   -4.3317 C   0  0  0  0  0  0  0  0  0  0  0  0
    4.0595    7.8182   -4.2553 O   0  0  0  0  0  0  0  0  0  0  0  0
    2.0952    8.1436   -5.6545 C   0  0  2  0  0  0  0  0  0  0  0  0
    1.0871    6.9894   -5.6023 C   0  0  0  0  0  0  0  0  0  0  0  0
    0.0332    7.2253   -4.6592 O   0  0  0  0  0  0  0  0  0  0  0  0
    3.0438    7.9896   -6.7522 N   0  0  0  0  0  0  0  0  0  0  0  0
    2.6720    8.1621   -8.0593 C   0  0  0  0  0  0  0  0  0  0  0  0
    1.5237    8.4336   -8.3958 O   0  0  0  0  0  0  0  0  0  0  0  0
    3.7819    7.9800   -9.0575 C   0  0  0  0  0  0  0  0  0  0  0  0
    9.8000   -2.2613    2.9788 H   0  0  0  0  0  0  0  0  0  0  0  0
   10.2703   -1.3443    1.5313 H   0  0  0  0  0  0  0  0  0  0  0  0
   10.1622   -0.5318    3.0939 H   0  0  0  0  0  0  0  0  0  0  0  0
    7.7755   -0.7941    3.1935 H   0  0  0  0  0  0  0  0  0  0  0  0
    8.1937   -0.0121    1.6674 H   0  0  0  0  0  0  0  0  0  0  0  0
    7.6798   -3.0090    1.9650 H   0  0  0  0  0  0  0  0  0  0  0  0
    7.4470   -2.9651   -0.5326 H   0  0  0  0  0  0  0  0  0  0  0  0
    7.9191   -1.2566   -0.5340 H   0  0  0  0  0  0  0  0  0  0  0  0
    9.0553   -2.5029    0.0085 H   0  0  0  0  0  0  0  0  0  0  0  0
    5.5542   -2.7030    0.7846 H   0  0  0  0  0  0  0  0  0  0  0  0
    5.5780   -0.3166    3.4730 H   0  0  0  0  0  0  0  0  0  0  0  0
    4.2679   -2.4086    5.1615 H   0  0  0  0  0  0  0  0  0  0  0  0
    6.8869   -2.3995    5.1773 H   0  0  0  0  0  0  0  0  0  0  0  0
    6.5011   -0.1987    7.2522 H   0  0  0  0  0  0  0  0  0  0  0  0
    7.1872    0.0638    5.6285 H   0  0  0  0  0  0  0  0  0  0  0  0
    7.9806   -1.0113    6.7976 H   0  0  0  0  0  0  0  0  0  0  0  0
    5.6175   -2.3542    7.7007 H   0  0  0  0  0  0  0  0  0  0  0  0
    3.3064    0.0123    3.9572 H   0  0  0  0  0  0  0  0  0  0  0  0
    2.4290    1.6044    6.3284 H   0  0  0  0  0  0  0  0  0  0  0  0
    0.6656    2.4355    4.5847 H   0  0  0  0  0  0  0  0  0  0  0  0
    2.2478    4.0100    3.4687 H   0  0  0  0  0  0  0  0  0  0  0  0
    2.5711    3.8859    5.2130 H   0  0  0  0  0  0  0  0  0  0  0  0
    3.6152    3.0615    4.0399 H   0  0  0  0  0  0  0  0  0  0  0  0
    0.9307    0.8268    3.0900 H   0  0  0  0  0  0  0  0  0  0  0  0
    1.3659    0.2106    7.5860 H   0  0  0  0  0  0  0  0  0  0  0  0
    0.6284   -2.1350    6.9434 H   0  0  0  0  0  0  0  0  0  0  0  0
    0.6445   -0.9909    9.3097 H   0  0  0  0  0  0  0  0  0  0  0  0
   -1.0902   -0.7754    9.1034 H   0  0  0  0  0  0  0  0  0  0  0  0
    0.3831   -3.4485    8.8954 H   0  0  0  0  0  0  0  0  0  0  0  0
   -1.3656   -3.2526    8.8331 H   0  0  0  0  0  0  0  0  0  0  0  0
   -1.4561   -2.4396   11.1272 H   0  0  0  0  0  0  0  0  0  0  0  0
    0.2940   -2.3620   11.2473 H   0  0  0  0  0  0  0  0  0  0  0  0
   -0.6395   -4.3359   12.4109 H   0  0  0  0  0  0  0  0  0  0  0  0
   -1.3405   -4.9386   10.9061 H   0  0  0  0  0  0  0  0  0  0  0  0
    0.7819   -5.9194   11.5256 H   0  0  0  0  0  0  0  0  0  0  0  0
    0.7488   -5.3099   10.0359 H   0  0  0  0  0  0  0  0  0  0  0  0
   -1.4736    0.5444    6.3855 H   0  0  0  0  0  0  0  0  0  0  0  0
   -3.8134   -1.1677    5.6906 H   0  0  0  0  0  0  0  0  0  0  0  0
   -4.6206    0.8258    6.9049 H   0  0  0  0  0  0  0  0  0  0  0  0
   -3.5895    1.8809    5.9358 H   0  0  0  0  0  0  0  0  0  0  0  0
   -6.4745    0.2340    3.8214 H   0  0  0  0  0  0  0  0  0  0  0  0
   -4.2359   -1.4820    3.6087 H   0  0  0  0  0  0  0  0  0  0  0  0
   -2.8936    0.0628    1.4733 H   0  0  0  0  0  0  0  0  0  0  0  0
   -2.8798   -2.9093    1.0215 H   0  0  0  0  0  0  0  0  0  0  0  0
   -1.9067   -2.4542    2.3869 H   0  0  0  0  0  0  0  0  0  0  0  0
   -1.5867   -1.1320   -0.3391 H   0  0  0  0  0  0  0  0  0  0  0  0
    0.2340   -1.2321    2.1223 H   0  0  0  0  0  0  0  0  0  0  0  0
    0.6646   -0.5133    0.5657 H   0  0  0  0  0  0  0  0  0  0  0  0
   -0.6299    0.1977    1.5239 H   0  0  0  0  0  0  0  0  0  0  0  0
    0.3727   -2.6300   -0.6364 H   0  0  0  0  0  0  0  0  0  0  0  0
   -1.1313   -3.5369   -0.5406 H   0  0  0  0  0  0  0  0  0  0  0  0
   -0.0464   -3.4837    0.8565 H   0  0  0  0  0  0  0  0  0  0  0  0
   -4.2084   -2.0219   -0.4808 H   0  0  0  0  0  0  0  0  0  0  0  0
   -6.1151   -3.1504   -0.9543 H   0  0  0  0  0  0  0  0  0  0  0  0
   -7.5428   -1.8477    1.4303 H   0  0  0  0  0  0  0  0  0  0  0  0
   -8.3060   -2.7984    0.1840 H   0  0  0  0  0  0  0  0  0  0  0  0
   -8.0028   -4.1966    2.0541 H   0  0  0  0  0  0  0  0  0  0  0  0
   -6.9057   -4.7749    0.8122 H   0  0  0  0  0  0  0  0  0  0  0  0
   -6.0486   -2.8977    3.0769 H   0  0  0  0  0  0  0  0  0  0  0  0
   -4.9846   -3.7716    1.9649 H   0  0  0  0  0  0  0  0  0  0  0  0
   -6.8071   -5.0670    4.0459 H   0  0  0  0  0  0  0  0  0  0  0  0
   -5.7483   -5.9476    2.9329 H   0  0  0  0  0  0  0  0  0  0  0  0
   -4.7451   -5.5664    5.0739 H   0  0  0  0  0  0  0  0  0  0  0  0
   -3.8751   -4.8717    3.8918 H   0  0  0  0  0  0  0  0  0  0  0  0
   -7.2090    0.0162    0.3248 H   0  0  0  0  0  0  0  0  0  0  0  0
   -8.0543    0.7856   -2.4505 H   0  0  0  0  0  0  0  0  0  0  0  0
   -8.7153    2.0182    0.2959 H   0  0  0  0  0  0  0  0  0  0  0  0
   -9.1355    2.7722   -1.2313 H   0  0  0  0  0  0  0  0  0  0  0  0
  -10.1053    0.0106   -0.3088 H   0  0  0  0  0  0  0  0  0  0  0  0
  -10.5010    0.7803   -1.8695 H   0  0  0  0  0  0  0  0  0  0  0  0
  -13.2168    1.5728    0.1243 H   0  0  0  0  0  0  0  0  0  0  0  0
   -5.7200    1.2922    0.0997 H   0  0  0  0  0  0  0  0  0  0  0  0
   -4.7030    3.7828   -1.1705 H   0  0  0  0  0  0  0  0  0  0  0  0
   -3.0579    3.7731    0.7883 H   0  0  0  0  0  0  0  0  0  0  0  0
   -3.9332    2.4241    1.4837 H   0  0  0  0  0  0  0  0  0  0  0  0
   -4.6064    4.4206    2.6139 H   0  0  0  0  0  0  0  0  0  0  0  0
   -5.9883    3.8410    1.6939 H   0  0  0  0  0  0  0  0  0  0  0  0
   -5.5418    5.5480   -0.0763 H   0  0  0  0  0  0  0  0  0  0  0  0
   -4.0901    6.0706    0.7835 H   0  0  0  0  0  0  0  0  0  0  0  0
   -5.4909    6.7563    2.7402 H   0  0  0  0  0  0  0  0  0  0  0  0
   -6.9485    6.2173    1.8925 H   0  0  0  0  0  0  0  0  0  0  0  0
   -6.6182    8.5336    1.6328 H   0  0  0  0  0  0  0  0  0  0  0  0
   -6.4911    7.8005    0.1846 H   0  0  0  0  0  0  0  0  0  0  0  0
   -2.6571    3.6959   -1.9754 H   0  0  0  0  0  0  0  0  0  0  0  0
   -0.9732    2.9531   -3.1802 H   0  0  0  0  0  0  0  0  0  0  0  0
   -0.7910    1.1209   -0.7394 H   0  0  0  0  0  0  0  0  0  0  0  0
    0.5014    1.2695   -1.8956 H   0  0  0  0  0  0  0  0  0  0  0  0
    0.9259    2.6342    0.0494 H   0  0  0  0  0  0  0  0  0  0  0  0
   -0.6130    3.4581   -0.0884 H   0  0  0  0  0  0  0  0  0  0  0  0
    1.3428    4.8087   -0.8085 H   0  0  0  0  0  0  0  0  0  0  0  0
    0.0892    4.6817   -2.0328 H   0  0  0  0  0  0  0  0  0  0  0  0
    1.3644    3.1016   -3.3509 H   0  0  0  0  0  0  0  0  0  0  0  0
    2.5758    2.9112   -2.0794 H   0  0  0  0  0  0  0  0  0  0  0  0
    3.1855    4.3859   -3.8488 H   0  0  0  0  0  0  0  0  0  0  0  0
    3.3338    5.0052   -2.3867 H   0  0  0  0  0  0  0  0  0  0  0  0
   -2.5927   -0.1479   -2.1822 H   0  0  0  0  0  0  0  0  0  0  0  0
   -2.3096   -1.2672   -4.7818 H   0  0  0  0  0  0  0  0  0  0  0  0
   -0.5785   -3.1222   -3.4000 H   0  0  0  0  0  0  0  0  0  0  0  0
    0.0556   -1.5411   -2.9964 H   0  0  0  0  0  0  0  0  0  0  0  0
    0.1612   -1.0206   -5.5143 H   0  0  0  0  0  0  0  0  0  0  0  0
    1.2298   -2.2985   -4.9019 H   0  0  0  0  0  0  0  0  0  0  0  0
   -0.0130   -3.8683   -7.6758 H   0  0  0  0  0  0  0  0  0  0  0  0
   -2.8027   -3.6208   -4.8594 H   0  0  0  0  0  0  0  0  0  0  0  0
   -4.9229   -4.2162   -2.8644 H   0  0  0  0  0  0  0  0  0  0  0  0
   -5.5938   -6.0345   -4.4572 H   0  0  0  0  0  0  0  0  0  0  0  0
   -5.6367   -3.1891   -5.5876 H   0  0  0  0  0  0  0  0  0  0  0  0
   -6.7357   -4.5089   -6.0209 H   0  0  0  0  0  0  0  0  0  0  0  0
   -6.7533   -3.8505   -4.3801 H   0  0  0  0  0  0  0  0  0  0  0  0
   -3.8055   -4.6870   -6.5375 H   0  0  0  0  0  0  0  0  0  0  0  0
   -3.3935   -6.2176   -5.7429 H   0  0  0  0  0  0  0  0  0  0  0  0
   -4.8475   -6.0921   -6.7363 H   0  0  0  0  0  0  0  0  0  0  0  0
   -3.1435   -4.3856   -1.3624 H   0  0  0  0  0  0  0  0  0  0  0  0
   -2.1786   -5.6075    0.2140 H   0  0  0  0  0  0  0  0  0  0  0  0
   -3.4242   -8.1689   -0.8690 H   0  0  0  0  0  0  0  0  0  0  0  0
   -3.7971   -8.6050    1.5601 H   0  0  0  0  0  0  0  0  0  0  0  0
   -3.0174   -7.0690    1.9676 H   0  0  0  0  0  0  0  0  0  0  0  0
   -2.0872   -8.3806    1.2288 H   0  0  0  0  0  0  0  0  0  0  0  0
   -4.8634   -5.8576    0.5237 H   0  0  0  0  0  0  0  0  0  0  0  0
   -5.2592   -6.5375   -1.0631 H   0  0  0  0  0  0  0  0  0  0  0  0
   -5.5262   -7.4949    0.3842 H   0  0  0  0  0  0  0  0  0  0  0  0
   -0.6837   -5.1703   -2.1405 H   0  0  0  0  0  0  0  0  0  0  0  0
    1.3922   -7.3251   -1.9962 H   0  0  0  0  0  0  0  0  0  0  0  0
    0.8806   -6.0005   -4.1777 H   0  0  0  0  0  0  0  0  0  0  0  0
    1.5359   -4.5813   -3.3824 H   0  0  0  0  0  0  0  0  0  0  0  0
    3.7345   -5.8585   -3.0485 H   0  0  0  0  0  0  0  0  0  0  0  0
    3.2917   -5.4882   -4.7271 H   0  0  0  0  0  0  0  0  0  0  0  0
    4.3246   -8.8811   -4.5584 H   0  0  0  0  0  0  0  0  0  0  0  0
    1.1772   -6.9770    0.4016 H   0  0  0  0  0  0  0  0  0  0  0  0
    2.6887   -4.5971    1.4044 H   0  0  0  0  0  0  0  0  0  0  0  0
    0.2328   -5.3456    2.3338 H   0  0  0  0  0  0  0  0  0  0  0  0
    1.1747   -6.4893    3.2636 H   0  0  0  0  0  0  0  0  0  0  0  0
    1.6340   -3.4451    3.2559 H   0  0  0  0  0  0  0  0  0  0  0  0
    2.5132   -4.6093    4.2406 H   0  0  0  0  0  0  0  0  0  0  0  0
   -1.2383   -3.7140    5.1269 H   0  0  0  0  0  0  0  0  0  0  0  0
    4.3628   -5.0639    2.9673 H   0  0  0  0  0  0  0  0  0  0  0  0
    5.5103   -7.8141    2.8306 H   0  0  0  0  0  0  0  0  0  0  0  0
    7.4452   -6.8214    4.0187 H   0  0  0  0  0  0  0  0  0  0  0  0
    6.5960   -5.2846    4.2059 H   0  0  0  0  0  0  0  0  0  0  0  0
    7.0934   -5.8280    2.5955 H   0  0  0  0  0  0  0  0  0  0  0  0
    6.2297   -8.5732    5.0778 H   0  0  0  0  0  0  0  0  0  0  0  0
    3.9732   -9.1112    6.4495 H   0  0  0  0  0  0  0  0  0  0  0  0
    6.1775  -10.3971    6.4302 H   0  0  0  0  0  0  0  0  0  0  0  0
    6.8244   -9.2877    7.6246 H   0  0  0  0  0  0  0  0  0  0  0  0
    4.3270  -11.0101    8.0746 H   0  0  0  0  0  0  0  0  0  0  0  0
    5.1802  -10.0278    9.3001 H   0  0  0  0  0  0  0  0  0  0  0  0
    6.3796  -13.2399    9.8229 H   0  0  0  0  0  0  0  0  0  0  0  0
    5.9598   -6.3310    7.0404 H   0  0  0  0  0  0  0  0  0  0  0  0
    6.1462   -4.7663    8.6561 H   0  0  0  0  0  0  0  0  0  0  0  0
    3.3209   -5.5168    9.6073 H   0  0  0  0  0  0  0  0  0  0  0  0
    3.5626   -4.7751    8.0210 H   0  0  0  0  0  0  0  0  0  0  0  0
    2.2952   -3.8284   10.6890 H   0  0  0  0  0  0  0  0  0  0  0  0
    3.0130   -2.2603   10.8440 H   0  0  0  0  0  0  0  0  0  0  0  0
    5.7565   -6.0256   12.0997 H   0  0  0  0  0  0  0  0  0  0  0  0
    5.3257   -0.8342   -0.2622 H   0  0  0  0  0  0  0  0  0  0  0  0
    5.7609    1.9832   -0.4610 H   0  0  0  0  0  0  0  0  0  0  0  0
    3.3611    3.1627    0.2785 H   0  0  0  0  0  0  0  0  0  0  0  0
    3.7970    2.4271    1.7993 H   0  0  0  0  0  0  0  0  0  0  0  0
    4.7939    4.4581    2.0835 H   0  0  0  0  0  0  0  0  0  0  0  0
    6.1833    3.6328    1.3398 H   0  0  0  0  0  0  0  0  0  0  0  0
    5.5312    6.8019   -0.2708 H   0  0  0  0  0  0  0  0  0  0  0  0
    3.0357    0.7665   -0.3671 H   0  0  0  0  0  0  0  0  0  0  0  0
    2.2863    0.2154   -2.6434 H   0  0  0  0  0  0  0  0  0  0  0  0
    2.5904   -1.4556   -0.8396 H   0  0  0  0  0  0  0  0  0  0  0  0
    2.1705   -2.2785   -2.3561 H   0  0  0  0  0  0  0  0  0  0  0  0
    3.8008   -3.3590   -1.4344 H   0  0  0  0  0  0  0  0  0  0  0  0
    4.1951   -1.4327   -4.2142 H   0  0  0  0  0  0  0  0  0  0  0  0
    3.0181   -1.0167   -6.6998 H   0  0  0  0  0  0  0  0  0  0  0  0
    5.8395    0.0111   -6.0121 H   0  0  0  0  0  0  0  0  0  0  0  0
    5.4830   -0.8482   -7.5257 H   0  0  0  0  0  0  0  0  0  0  0  0
    6.2234   -2.2274   -5.9006 H   0  0  0  0  0  0  0  0  0  0  0  0
    4.2401    1.6061   -7.4472 H   0  0  0  0  0  0  0  0  0  0  0  0
    2.2559    2.3769   -9.5627 H   0  0  0  0  0  0  0  0  0  0  0  0
    2.9933    4.6339   -8.6755 H   0  0  0  0  0  0  0  0  0  0  0  0
    2.2212    4.1539   -6.2286 H   0  0  0  0  0  0  0  0  0  0  0  0
    3.7516    5.0082   -6.5069 H   0  0  0  0  0  0  0  0  0  0  0  0
    3.7895    3.3251   -6.0663 H   0  0  0  0  0  0  0  0  0  0  0  0
    4.5703    3.4376   -9.4756 H   0  0  0  0  0  0  0  0  0  0  0  0
    0.1001    2.5255   -7.8576 H   0  0  0  0  0  0  0  0  0  0  0  0
   -1.7952    3.9368   -9.6826 H   0  0  0  0  0  0  0  0  0  0  0  0
   -0.9729    6.4070   -9.8669 H   0  0  0  0  0  0  0  0  0  0  0  0
   -1.1054    6.4979   -8.1211 H   0  0  0  0  0  0  0  0  0  0  0  0
   -4.3932    6.1640  -10.2785 H   0  0  0  0  0  0  0  0  0  0  0  0
   -1.2022    4.1920   -6.7564 H   0  0  0  0  0  0  0  0  0  0  0  0
   -2.4238    2.7780   -5.5040 H   0  0  0  0  0  0  0  0  0  0  0  0
   -4.4456    1.7979   -4.6992 H   0  0  0  0  0  0  0  0  0  0  0  0
   -6.5386    1.6078   -5.9809 H   0  0  0  0  0  0  0  0  0  0  0  0
   -6.2074    3.2792   -5.5504 H   0  0  0  0  0  0  0  0  0  0  0  0
   -5.9315    2.7197   -7.2090 H   0  0  0  0  0  0  0  0  0  0  0  0
   -3.0014    0.4667   -6.2974 H   0  0  0  0  0  0  0  0  0  0  0  0
   -4.1385    0.8578   -7.5941 H   0  0  0  0  0  0  0  0  0  0  0  0
   -4.6794   -0.0783   -6.1964 H   0  0  0  0  0  0  0  0  0  0  0  0
   -4.6678    4.6969   -5.3409 H   0  0  0  0  0  0  0  0  0  0  0  0
   -4.2028    6.0782   -3.3590 H   0  0  0  0  0  0  0  0  0  0  0  0
   -4.6769    7.0799   -5.5955 H   0  0  0  0  0  0  0  0  0  0  0  0
   -4.3074    8.3534   -4.4192 H   0  0  0  0  0  0  0  0  0  0  0  0
   -3.0882    7.8581   -5.6017 H   0  0  0  0  0  0  0  0  0  0  0  0
   -1.6947    7.6793   -3.4694 H   0  0  0  0  0  0  0  0  0  0  0  0
   -0.7946    6.5460   -0.1563 H   0  0  0  0  0  0  0  0  0  0  0  0
   -2.7363    8.1729    0.0478 H   0  0  0  0  0  0  0  0  0  0  0  0
   -2.0096    9.1685   -1.2208 H   0  0  0  0  0  0  0  0  0  0  0  0
   -1.1763    8.9604    0.3211 H   0  0  0  0  0  0  0  0  0  0  0  0
    0.3468    7.0567   -2.5625 H   0  0  0  0  0  0  0  0  0  0  0  0
    3.0528    7.2686   -1.8866 H   0  0  0  0  0  0  0  0  0  0  0  0
    3.4639    9.2259   -0.1612 H   0  0  0  0  0  0  0  0  0  0  0  0
    3.0118   10.3063   -1.4722 H   0  0  0  0  0  0  0  0  0  0  0  0
    6.2825    8.1917   -1.9754 H   0  0  0  0  0  0  0  0  0  0  0  0
    1.1333    8.6922   -3.4126 H   0  0  0  0  0  0  0  0  0  0  0  0
    1.5823    9.1061   -5.7672 H   0  0  0  0  0  0  0  0  0  0  0  0
    1.5833    6.0623   -5.3100 H   0  0  0  0  0  0  0  0  0  0  0  0
    0.6210    6.8259   -6.5772 H   0  0  0  0  0  0  0  0  0  0  0  0
   -0.4969    6.3934   -4.7173 H   0  0  0  0  0  0  0  0  0  0  0  0
    4.0120    7.8124   -6.4982 H   0  0  0  0  0  0  0  0  0  0  0  0
    4.7187    7.6893   -8.5744 H   0  0  0  0  0  0  0  0  0  0  0  0
    3.9399    8.9206   -9.5916 H   0  0  0  0  0  0  0  0  0  0  0  0
    3.4994    7.1950   -9.7644 H   0  0  0  0  0  0  0  0  0  0  0  0
  1  2  1  0
  2  3  1  0
  3  4  1  0
  3  5  1  0
  5  6  1  0
  6  7  2  0
  6  8  1  0
  8  9  1  0
  9 10  1  0
 10 11  1  0
 10 12  1  0
  9 13  1  0
 13 14  2  0
 13 15  1  0
 15 16  1  0
 16 17  1  0
 17 18  1  0
 17 19  1  0
 16 20  1  0
 20 21  2  0
 20 22  1  0
 22 23  1  0
 23 24  1  0
 24 25  1  0
 25 26  1  0
 26 27  1  0
 27 28  1  0
 23 29  1  0
 29 30  2  0
 29 31  1  0
 31 32  1  0
 32 33  1  0
 33 34  1  0
 34 35  2  0
 34 36  1  0
 32 37  1  0
 37 38  2  0
 37 39  1  0
 39 40  1  0
 40 41  1  0
 41 42  1  0
 42 43  1  0
 42 44  1  0
 40 45  1  0
 45 46  2  0
 45 47  1  0
 47 48  1  0
 48 49  1  0
 49 50  1  0
 50 51  1  0
 51 52  1  0
 52 53  1  0
 48 54  1  0
 54 55  2  0
 54 56  1  0
 56 57  1  0
 57 58  1  0
 58 59  1  0
 59 60  1  0
 60 61  2  0
 60 62  1  0
 57 63  1  0
 63 64  2  0
 63 65  1  0
 65 66  1  0
 66 67  1  0
 67 68  1  0
 68 69  1  0
 69 70  1  0
 70 71  1  0
 66 72  1  0
 72 73  2  0
 72 74  1  0
 74 75  1  0
 75 76  1  0
 76 77  1  0
 77 78  1  0
 78 79  1  0
 79 80  1  0
 75 81  1  0
 81 82  2  0
 81 83  1  0
 83 84  1  0
 84 85  1  0
 85 86  1  0
 86 87  1  0
 87 88  2  0
 87 89  1  0
 84 90  1  0
 90 91  2  0
 90 92  1  0
 92 93  1  0
 93 94  1  0
 94 95  1  0
 94 96  1  0
 93 97  1  0
 97 98  2  0
 97 99  1  0
 99100  1  0
100101  1  0
101102  1  0
101103  1  0
100104  1  0
104105  2  0
104106  1  0
106107  1  0
107108  1  0
108109  1  0
109110  1  0
110111  2  0
110112  1  0
107113  1  0
113114  2  0
113115  1  0
115116  1  0
116117  1  0
117118  1  0
118119  1  0
119120  2  0
119121  1  0
116122  1  0
122123  2  0
122124  1  0
124125  1  0
125126  1  0
125127  1  0
127128  2  0
127129  1  0
129130  1  0
130131  1  0
131132  1  0
132133  1  0
133134  2  0
133135  1  0
130136  1  0
136137  2  0
136138  1  0
138139  1  0
139140  1  0
140141  1  0
141142  2  0
141143  1  0
139144  1  0
144145  2  0
144146  1  0
  5147  1  0
147148  1  0
148149  2  0
148150  1  0
150151  1  0
151152  1  0
152153  1  0
153154  2  0
153155  1  0
150156  1  0
156157  1  0
157158  2  0
157159  1  0
159160  1  0
160161  1  0
159162  1  0
162163  1  0
163164  2  0
163165  1  0
165166  1  0
166167  1  0
165168  1  0
168169  1  0
169170  2  0
169171  1  0
171172  1  0
172173  1  0
172174  1  0
171175  1  0
175176  1  0
176177  2  0
176178  1  0
178179  1  0
179180  1  0
180181  2  0
180182  1  0
178183  1  0
183184  1  0
184185  2  0
184186  1  0
186187  1  0
187188  1  0
187189  1  0
186190  1  0
190191  1  0
191192  2  0
191193  1  0
193194  1  0
193195  1  0
195196  1  0
196197  2  0
196198  1  0
198199  1  0
198200  1  0
200201  1  0
201202  2  0
201203  1  0
203204  1  0
204205  1  0
205206  2  0
205207  1  0
203208  1  0
208209  1  0
209210  2  0
209211  1  0
211212  1  0
212213  1  0
211214  1  0
214215  1  0
215216  2  0
215217  1  0
  1218  1  0
  1219  1  0
  1220  1  0
  2221  1  0
  2222  1  0
  3223  1  1
  4224  1  0
  4225  1  0
  4226  1  0
  5227  1  6
  8228  1  0
  9229  1  6
 10230  1  6
 11231  1  0
 11232  1  0
 11233  1  0
 12234  1  0
 15235  1  0
 16236  1  1
 17237  1  1
 18238  1  0
 18239  1  0
 18240  1  0
 19241  1  0
 22242  1  0
 23243  1  6
 24244  1  0
 24245  1  0
 25246  1  0
 25247  1  0
 26248  1  0
 26249  1  0
 27250  1  0
 27251  1  0
 28252  1  0
 28253  1  0
 31254  1  0
 32255  1  6
 33256  1  0
 33257  1  0
 36258  1  0
 39259  1  0
 40260  1  6
 41261  1  0
 41262  1  0
 42263  1  0
 43264  1  0
 43265  1  0
 43266  1  0
 44267  1  0
 44268  1  0
 44269  1  0
 47270  1  0
 48271  1  6
 49272  1  0
 49273  1  0
 50274  1  0
 50275  1  0
 51276  1  0
 51277  1  0
 52278  1  0
 52279  1  0
 53280  1  0
 53281  1  0
 56282  1  0
 57283  1  6
 58284  1  0
 58285  1  0
 59286  1  0
 59287  1  0
 62288  1  0
 65289  1  0
 66290  1  6
 67291  1  0
 67292  1  0
 68293  1  0
 68294  1  0
 69295  1  0
 69296  1  0
 70297  1  0
 70298  1  0
 71299  1  0
 71300  1  0
 74301  1  0
 75302  1  6
 76303  1  0
 76304  1  0
 77305  1  0
 77306  1  0
 78307  1  0
 78308  1  0
 79309  1  0
 79310  1  0
 80311  1  0
 80312  1  0
 83313  1  0
 84314  1  6
 85315  1  0
 85316  1  0
 86317  1  0
 86318  1  0
 89319  1  0
 92320  1  0
 93321  1  1
 94322  1  0
 95323  1  0
 95324  1  0
 95325  1  0
 96326  1  0
 96327  1  0
 96328  1  0
 99329  1  0
100330  1  1
101331  1  0
102332  1  0
102333  1  0
102334  1  0
103335  1  0
103336  1  0
103337  1  0
106338  1  0
107339  1  6
108340  1  0
108341  1  0
109342  1  0
109343  1  0
112344  1  0
115345  1  0
116346  1  6
117347  1  0
117348  1  0
118349  1  0
118350  1  0
121351  1  0
124352  1  0
125353  1  6
126354  1  0
126355  1  0
126356  1  0
129357  1  0
130358  1  6
131359  1  0
131360  1  0
132361  1  0
132362  1  0
135363  1  0
138364  1  0
139365  1  6
140366  1  0
140367  1  0
143368  1  0
143369  1  0
146370  1  0
147371  1  0
150372  1  6
151373  1  0
151374  1  0
152375  1  0
152376  1  0
155377  1  0
156378  1  0
159379  1  6
160380  1  0
160381  1  0
161382  1  0
162383  1  0
165384  1  6
166385  1  0
166386  1  0
167387  1  0
168388  1  0
171389  1  6
172390  1  6
173391  1  0
173392  1  0
173393  1  0
174394  1  0
175395  1  0
178396  1  6
179397  1  0
179398  1  0
182399  1  0
183400  1  0
186401  1  1
187402  1  0
188403  1  0
188404  1  0
188405  1  0
189406  1  0
189407  1  0
189408  1  0
190409  1  0
193410  1  1
194411  1  0
194412  1  0
194413  1  0
195414  1  0
198415  1  1
199416  1  0
199417  1  0
199418  1  0
200419  1  0
203420  1  6
204421  1  0
204422  1  0
207423  1  0
208424  1  0
211425  1  6
212426  1  0
212427  1  0
213428  1  0
214429  1  0
217430  1  0
217431  1  0
217432  1  0
M  END
